
  ACD/LABS05252611532D

 12 13  0  0  1  0  0  0  0  0  1 V2000
   17.7868   -7.1467    0.0000 C   0  0  0  0  0  0  0  0  0  0  0  0
   18.9405   -6.4898    0.0000 C   0  0  0  0  0  0  0  0  0  0  0  0
   18.0271   -8.0761    0.0000 C   0  0  0  0  0  0  0  0  0  0  0  0
   19.8699   -7.2749    0.0000 C   0  0  0  0  0  0  0  0  0  0  0  0
   21.4402   -7.9640    0.0000 C   0  0  0  0  0  0  0  0  0  0  0  0
   20.8794   -6.8583    0.0000 C   0  0  0  0  0  0  0  0  0  0  0  0
   19.8378   -5.4482    0.0000 C   0  0  0  0  0  0  0  0  0  0  0  0
   19.7257   -8.4767    0.0000 C   0  0  0  0  0  0  0  0  0  0  0  0
   18.5880   -5.2078    0.0000 H   0  0  0  0  0  0  0  0  0  0  0  0
   22.5940   -8.6210    0.0000 O   0  0  0  0  0  0  0  0  0  0  0  0
   21.1198   -5.0957    0.0000 C   0  0  0  0  0  0  0  0  0  0  0  0
   19.1808   -4.2945    0.0000 C   0  0  0  0  0  0  0  0  0  0  0  0
  1  2  1  0  0  0  0
  1  3  1  0  0  0  0
  3  4  1  0  0  0  0
  4  5  1  0  0  0  0
  5  6  1  0  0  0  0
  6  2  1  0  0  0  0
  4  7  1  0  0  0  0
  7  2  1  0  0  0  0
  4  8  1  1  0  0  0
  2  9  1  6  0  0  0
 10  5  2  0  0  0  0
  7 11  1  0  0  0  0
  7 12  1  0  0  0  0
M  END
$$$$
