
  ACD/LABS05252612162D

  8  8  0  0  0  0  0  0  0  0  1 V2000
   18.7971   -8.7643    0.0000 C   0  0  0  0  0  0  0  0  0  0  0  0
   18.7971  -10.0943    0.0000 Cl  0  0  0  0  0  0  0  0  0  0  0  0
   19.9489   -8.0993    0.0000 C   0  0  0  0  0  0  0  0  0  0  0  0
   19.9489   -6.7693    0.0000 C   0  0  0  0  0  0  0  0  0  0  0  0
   21.1007   -8.7643    0.0000 C   0  0  0  0  0  0  0  0  0  0  0  0
   21.1007   -6.1043    0.0000 C   0  0  0  0  0  0  0  0  0  0  0  0
   22.2526   -8.0993    0.0000 C   0  0  0  0  0  0  0  0  0  0  0  0
   22.2526   -6.7693    0.0000 C   0  0  0  0  0  0  0  0  0  0  0  0
  1  2  1  0  0  0  0
  3  4  1  0  0  0  0
  3  5  2  0  0  0  0
  4  6  2  0  0  0  0
  5  7  1  0  0  0  0
  6  8  1  0  0  0  0
  7  8  2  0  0  0  0
  1  3  1  0  0  0  0
M  END
$$$$
