
  ACD/LABS05232615412D

 12 11  0  0  0  0  0  0  0  0  1 V2000
   19.7298   -9.4582    0.0000 B   0  0  0  0  0  0  0  0  0  0  0  0
   20.6873   -8.9054    0.0000 Cl  0  0  0  0  0  0  0  0  0  0  0  0
   18.7722   -8.9054    0.0000 N   0  0  0  0  0  0  0  0  0  0  0  0
   19.7298  -10.5639    0.0000 N   0  0  0  0  0  0  0  0  0  0  0  0
   18.7722   -7.7997    0.0000 C   0  0  0  0  0  0  0  0  0  0  0  0
   17.8147   -9.4582    0.0000 C   0  0  0  0  0  0  0  0  0  0  0  0
   20.6873  -11.1167    0.0000 C   0  0  0  0  0  0  0  0  0  0  0  0
   18.7722  -11.1167    0.0000 C   0  0  0  0  0  0  0  0  0  0  0  0
   19.7298   -7.2469    0.0000 C   0  0  0  0  0  0  0  0  0  0  0  0
   16.8572   -8.9054    0.0000 C   0  0  0  0  0  0  0  0  0  0  0  0
   18.7722  -12.2224    0.0000 C   0  0  0  0  0  0  0  0  0  0  0  0
   20.6873  -12.2224    0.0000 C   0  0  0  0  0  0  0  0  0  0  0  0
  1  2  1  0  0  0  0
  1  3  1  0  0  0  0
  1  4  1  0  0  0  0
  3  5  1  0  0  0  0
  3  6  1  0  0  0  0
  4  7  1  0  0  0  0
  4  8  1  0  0  0  0
  5  9  1  0  0  0  0
  6 10  1  0  0  0  0
  8 11  1  0  0  0  0
  7 12  1  0  0  0  0
M  END
$$$$
