
  ACD/LABS05232615172D

 10  9  0  0  0  0  0  0  0  0  1 V2000
   21.3201   -7.4272    0.0000 B   0  0  0  0  0  0  0  0  0  0  0  0
   20.7672   -6.4696    0.0000 O   0  0  0  0  0  0  0  0  0  0  0  0
   20.7672   -8.3847    0.0000 O   0  0  0  0  0  0  0  0  0  0  0  0
   22.4257   -7.4272    0.0000 O   0  0  0  0  0  0  0  0  0  0  0  0
   22.9786   -8.3847    0.0000 C   0  0  0  0  0  0  0  0  0  0  0  0
   24.0842   -8.3847    0.0000 C   0  0  0  0  0  0  0  0  0  0  0  0
   21.3201   -5.5121    0.0000 C   0  0  0  0  0  0  0  0  0  0  0  0
   20.7672   -4.5546    0.0000 C   0  0  0  0  0  0  0  0  0  0  0  0
   21.3201   -9.3422    0.0000 C   0  0  0  0  0  0  0  0  0  0  0  0
   20.7672  -10.2998    0.0000 C   0  0  0  0  0  0  0  0  0  0  0  0
  1  2  1  0  0  0  0
  1  3  1  0  0  0  0
  1  4  1  0  0  0  0
  4  5  1  0  0  0  0
  5  6  1  0  0  0  0
  2  7  1  0  0  0  0
  7  8  1  0  0  0  0
  3  9  1  0  0  0  0
  9 10  1  0  0  0  0
M  END
$$$$
