
  ACD/LABS05232616142D

 16 15  0  0  0  0  0  0  0  0  1 V2000
   17.1137   -7.9530    0.0000 B   0  0  0  0  0  0  0  0  0  0  0  0
   18.7802   -7.9530    0.0000 O   0  0  0  0  0  0  0  0  0  0  0  0
   16.2805   -6.5098    0.0000 O   0  0  0  0  0  0  0  0  0  0  0  0
   16.2805   -9.3963    0.0000 O   0  0  0  0  0  0  0  0  0  0  0  0
   14.6140   -6.5098    0.0000 C   0  0  0  0  0  0  0  0  0  0  0  0
   13.7807   -5.0666    0.0000 C   0  0  0  0  0  0  0  0  0  0  0  0
   19.6135   -9.3963    0.0000 C   0  0  0  0  0  0  0  0  0  0  0  0
   17.1137  -10.8395    0.0000 C   0  0  0  0  0  0  0  0  0  0  0  0
   16.2805  -12.2827    0.0000 C   0  0  0  0  0  0  0  0  0  0  0  0
   21.2800   -9.3963    0.0000 C   0  0  0  0  0  0  0  0  0  0  0  0
   22.1133  -10.8395    0.0000 C   0  0  0  0  0  0  0  0  0  0  0  0
   12.1142   -5.0666    0.0000 C   0  0  0  0  0  0  0  0  0  0  0  0
   17.1137  -13.7260    0.0000 C   0  0  0  0  0  0  0  0  0  0  0  0
   14.6140   -3.6233    0.0000 C   0  0  0  0  0  0  0  0  0  0  0  0
   22.1133   -7.9530    0.0000 C   0  0  0  0  0  0  0  0  0  0  0  0
   14.6140  -12.2827    0.0000 C   0  0  0  0  0  0  0  0  0  0  0  0
  1  2  1  0  0  0  0
  1  3  1  0  0  0  0
  1  4  1  0  0  0  0
  3  5  1  0  0  0  0
  5  6  1  0  0  0  0
  2  7  1  0  0  0  0
  4  8  1  0  0  0  0
  8  9  1  0  0  0  0
  7 10  1  0  0  0  0
 10 11  1  0  0  0  0
  6 12  1  0  0  0  0
  9 13  1  0  0  0  0
  6 14  1  0  0  0  0
 10 15  1  0  0  0  0
  9 16  1  0  0  0  0
M  END
$$$$
