
  ACD/LABS05232616242D

 19 18  0  0  0  0  0  0  0  0  1 V2000
   17.5384   -3.5774    0.0000 B   0  0  0  0  0  0  0  0  0  0  0  0
   17.5384   -4.7792    0.0000 O   0  0  0  0  0  0  0  0  0  0  0  0
   18.5792   -2.9765    0.0000 O   0  0  0  0  0  0  0  0  0  0  0  0
   16.4976   -2.9765    0.0000 O   0  0  0  0  0  0  0  0  0  0  0  0
   18.5792   -5.3801    0.0000 C   0  0  0  0  0  0  0  0  0  0  0  0
   18.5792   -6.5819    0.0000 C   0  0  0  0  0  0  0  0  0  0  0  0
   19.6200   -7.1828    0.0000 C   0  0  0  0  0  0  0  0  0  0  0  0
   19.6200   -8.3846    0.0000 C   0  0  0  0  0  0  0  0  0  0  0  0
   19.6200   -3.5774    0.0000 C   0  0  0  0  0  0  0  0  0  0  0  0
   20.6608   -2.9765    0.0000 C   0  0  0  0  0  0  0  0  0  0  0  0
   21.7016   -3.5774    0.0000 C   0  0  0  0  0  0  0  0  0  0  0  0
   22.7424   -2.9765    0.0000 C   0  0  0  0  0  0  0  0  0  0  0  0
   15.4568   -3.5774    0.0000 C   0  0  0  0  0  0  0  0  0  0  0  0
   14.4160   -2.9765    0.0000 C   0  0  0  0  0  0  0  0  0  0  0  0
   13.3752   -3.5774    0.0000 C   0  0  0  0  0  0  0  0  0  0  0  0
   12.3344   -2.9765    0.0000 C   0  0  0  0  0  0  0  0  0  0  0  0
   13.3752   -4.7792    0.0000 C   0  0  0  0  0  0  0  0  0  0  0  0
   20.6608   -6.5819    0.0000 C   0  0  0  0  0  0  0  0  0  0  0  0
   21.7016   -4.7792    0.0000 C   0  0  0  0  0  0  0  0  0  0  0  0
  1  2  1  0  0  0  0
  1  3  1  0  0  0  0
  1  4  1  0  0  0  0
  2  5  1  0  0  0  0
  5  6  1  0  0  0  0
  6  7  1  0  0  0  0
  7  8  1  0  0  0  0
  3  9  1  0  0  0  0
  9 10  1  0  0  0  0
 10 11  1  0  0  0  0
 11 12  1  0  0  0  0
  4 13  1  0  0  0  0
 13 14  1  0  0  0  0
 14 15  1  0  0  0  0
 15 16  1  0  0  0  0
 15 17  1  0  0  0  0
  7 18  1  0  0  0  0
 11 19  1  0  0  0  0
M  END
$$$$
