
  ACD/LABS05232615532D

 13 12  0  0  0  0  0  0  0  0  1 V2000
   16.6545   -8.5269    0.0000 B   0  0  0  0  0  0  0  0  0  0  0  0
   18.0756   -9.3597    0.0000 O   0  0  0  0  0  0  0  0  0  0  0  0
   16.6545   -6.8727    0.0000 O   0  0  0  0  0  0  0  0  0  0  0  0
   15.2111   -9.3597    0.0000 O   0  0  0  0  0  0  0  0  0  0  0  0
   15.2111   -6.0399    0.0000 C   0  0  0  0  0  0  0  0  0  0  0  0
   13.7676   -6.8727    0.0000 C   0  0  0  0  0  0  0  0  0  0  0  0
   19.5190   -8.5269    0.0000 C   0  0  0  0  0  0  0  0  0  0  0  0
   19.5190   -6.8727    0.0000 C   0  0  0  0  0  0  0  0  0  0  0  0
   15.2111  -11.0254    0.0000 C   0  0  0  0  0  0  0  0  0  0  0  0
   16.6545  -11.8580    0.0000 C   0  0  0  0  0  0  0  0  0  0  0  0
   20.9625   -9.3597    0.0000 C   0  0  0  0  0  0  0  0  0  0  0  0
   13.7676  -11.8580    0.0000 C   0  0  0  0  0  0  0  0  0  0  0  0
   15.2111   -4.3744    0.0000 C   0  0  0  0  0  0  0  0  0  0  0  0
  1  2  1  0  0  0  0
  1  3  1  0  0  0  0
  1  4  1  0  0  0  0
  3  5  1  0  0  0  0
  5  6  1  0  0  0  0
  2  7  1  0  0  0  0
  7  8  1  0  0  0  0
  4  9  1  0  0  0  0
  9 10  1  0  0  0  0
  7 11  1  0  0  0  0
  9 12  1  0  0  0  0
  5 13  1  0  0  0  0
M  END
$$$$
