
  ACD/LABS05232615232D

  9  8  0  0  0  0  0  0  0  0  1 V2000
   18.0552   -6.4641    0.0000 P   0  0  0  0  0  0  0  0  0  0  0  0
   18.8804   -5.0348    0.0000 C   0  0  0  0  0  0  0  0  0  0  0  0
   18.8804   -7.8935    0.0000 N   0  0  0  0  0  0  0  0  0  0  0  0
   20.5309   -7.8935    0.0000 C   0  0  0  0  0  0  0  0  0  0  0  0
   21.3561   -9.3228    0.0000 C   0  0  0  0  0  0  0  0  0  0  0  0
   16.4047   -6.4641    0.0000 O   0  0  0  0  0  0  0  0  0  0  0  0
   15.5794   -7.8935    0.0000 C   0  0  0  0  0  0  0  0  0  0  0  0
   13.9290   -7.8935    0.0000 C   0  0  0  0  0  0  0  0  0  0  0  0
   16.4047   -9.3228    0.0000 C   0  0  0  0  0  0  0  0  0  0  0  0
  1  2  1  0  0  0  0
  1  3  1  0  0  0  0
  3  4  1  0  0  0  0
  4  5  1  0  0  0  0
  1  6  1  0  0  0  0
  6  7  1  0  0  0  0
  7  8  1  0  0  0  0
  7  9  1  0  0  0  0
M  END
$$$$

  ACD/LABS05232615232D

  1  0  0  0  0  0  0  0  0  0  1 V2000
   15.2229   -5.2239    0.0000 B   0  0  0  0  0  0  0  0  0  0  0  0
M  END
$$$$
