
  ACD/LABS05232614442D

  8  7  0  0  0  0  0  0  0  0  1 V2000
   19.4593   -9.5824    0.0000 B   0  0  0  0  0  0  0  0  0  0  0  0
   20.4168   -9.0296    0.0000 Cl  0  0  0  0  0  0  0  0  0  0  0  0
   18.5018   -9.0296    0.0000 N   0  0  0  0  0  0  0  0  0  0  0  0
   19.4593  -10.6881    0.0000 N   0  0  0  0  0  0  0  0  0  0  0  0
   18.5018   -7.9239    0.0000 C   0  0  0  0  0  0  0  0  0  0  0  0
   17.5443   -9.5824    0.0000 C   0  0  0  0  0  0  0  0  0  0  0  0
   20.4168  -11.2409    0.0000 C   0  0  0  0  0  0  0  0  0  0  0  0
   18.5018  -11.2409    0.0000 C   0  0  0  0  0  0  0  0  0  0  0  0
  1  2  1  0  0  0  0
  1  3  1  0  0  0  0
  1  4  1  0  0  0  0
  3  5  1  0  0  0  0
  3  6  1  0  0  0  0
  4  7  1  0  0  0  0
  4  8  1  0  0  0  0
M  END
$$$$
