
  ACD/LABS05232614322D

  1  0  0  0  0  0  0  0  0  0  1 V2000
   19.8699   -7.1948    0.0000 B   0  0  0  0  0  0  0  0  0  0  0  0
M  END
$$$$

  ACD/LABS05232614322D

  7  6  0  0  0  0  0  0  0  0  1 V2000
   14.0371   -6.6340    0.0000 P   0  0  0  0  0  0  0  0  0  0  0  0
   12.6270   -5.1117    0.0000 O   0  0  0  0  0  0  0  0  0  0  0  0
   15.4953   -5.3040    0.0000 O   0  0  0  0  0  0  0  0  0  0  0  0
   14.0371   -8.2204    0.0000 O   0  0  0  0  0  0  0  0  0  0  0  0
   15.3351   -9.1177    0.0000 C   0  0  0  0  0  0  0  0  0  0  0  0
   16.6490   -5.9129    0.0000 C   0  0  0  0  0  0  0  0  0  0  0  0
   10.9284   -5.6084    0.0000 C   0  0  0  0  0  0  0  0  0  0  0  0
  1  2  1  0  0  0  0
  1  3  1  0  0  0  0
  1  4  1  0  0  0  0
  4  5  1  0  0  0  0
  3  6  1  0  0  0  0
  2  7  1  0  0  0  0
M  END
$$$$
