
  ACD/LABS05232616162D

 13 12  0  0  0  0  0  0  0  0  1 V2000
   18.0461   -7.7557    0.0000 N   0  0  0  0  0  0  0  0  0  0  0  0
   18.0461   -6.5218    0.0000 C   0  0  0  0  0  0  0  0  0  0  0  0
   16.9775   -5.9049    0.0000 C   0  0  0  0  0  0  0  0  0  0  0  0
   16.9775   -4.6710    0.0000 C   0  0  0  0  0  0  0  0  0  0  0  0
   15.9090   -4.0541    0.0000 C   0  0  0  0  0  0  0  0  0  0  0  0
   19.1146   -8.3726    0.0000 C   0  0  0  0  0  0  0  0  0  0  0  0
   19.1146   -9.6064    0.0000 C   0  0  0  0  0  0  0  0  0  0  0  0
   20.1832  -10.2234    0.0000 C   0  0  0  0  0  0  0  0  0  0  0  0
   20.1832  -11.4572    0.0000 C   0  0  0  0  0  0  0  0  0  0  0  0
   16.9775   -8.3726    0.0000 C   0  0  0  0  0  0  0  0  0  0  0  0
   15.9090   -7.7557    0.0000 C   0  0  0  0  0  0  0  0  0  0  0  0
   14.8404   -8.3726    0.0000 C   0  0  0  0  0  0  0  0  0  0  0  0
   13.7719   -7.7557    0.0000 C   0  0  0  0  0  0  0  0  0  0  0  0
  1  2  1  0  0  0  0
  2  3  1  0  0  0  0
  3  4  1  0  0  0  0
  4  5  1  0  0  0  0
  1  6  1  0  0  0  0
  6  7  1  0  0  0  0
  7  8  1  0  0  0  0
  8  9  1  0  0  0  0
  1 10  1  0  0  0  0
 10 11  1  0  0  0  0
 11 12  1  0  0  0  0
 12 13  1  0  0  0  0
M  END
$$$$

  ACD/LABS05232616162D

  1  0  0  0  0  0  0  0  0  0  1 V2000
   21.9049   -6.8743    0.0000 B   0  0  0  0  0  0  0  0  0  0  0  0
M  END
$$$$
