
  ACD/LABS05232616132D

 16 15  0  0  0  0  0  0  0  0  1 V2000
   16.7933   -7.8107    0.0000 B   0  0  0  0  0  0  0  0  0  0  0  0
   18.4598   -7.8107    0.0000 O   0  0  0  0  0  0  0  0  0  0  0  0
   15.9600   -6.3674    0.0000 O   0  0  0  0  0  0  0  0  0  0  0  0
   15.9600   -9.2539    0.0000 O   0  0  0  0  0  0  0  0  0  0  0  0
   14.2935   -6.3674    0.0000 C   0  0  0  0  0  0  0  0  0  0  0  0
   13.4602   -4.9242    0.0000 C   0  0  0  0  0  0  0  0  0  0  0  0
   19.2930   -9.2539    0.0000 C   0  0  0  0  0  0  0  0  0  0  0  0
   16.7933  -10.6972    0.0000 C   0  0  0  0  0  0  0  0  0  0  0  0
   15.9600  -12.1404    0.0000 C   0  0  0  0  0  0  0  0  0  0  0  0
   20.9595   -9.2539    0.0000 C   0  0  0  0  0  0  0  0  0  0  0  0
   21.7928  -10.6972    0.0000 C   0  0  0  0  0  0  0  0  0  0  0  0
   23.4593  -10.6972    0.0000 C   0  0  0  0  0  0  0  0  0  0  0  0
   11.7937   -4.9242    0.0000 C   0  0  0  0  0  0  0  0  0  0  0  0
   10.9605   -3.4810    0.0000 C   0  0  0  0  0  0  0  0  0  0  0  0
   16.7933  -13.5836    0.0000 C   0  0  0  0  0  0  0  0  0  0  0  0
   15.9600  -15.0269    0.0000 C   0  0  0  0  0  0  0  0  0  0  0  0
  1  2  1  0  0  0  0
  1  3  1  0  0  0  0
  1  4  1  0  0  0  0
  3  5  1  0  0  0  0
  5  6  1  0  0  0  0
  2  7  1  0  0  0  0
  4  8  1  0  0  0  0
  8  9  1  0  0  0  0
  7 10  1  0  0  0  0
 10 11  1  0  0  0  0
 11 12  1  0  0  0  0
  6 13  1  0  0  0  0
 13 14  1  0  0  0  0
  9 15  1  0  0  0  0
 15 16  1  0  0  0  0
M  END
$$$$
