
  ACD/LABS05232615392D

 12 11  0  0  0  0  0  0  0  0  1 V2000
   17.6105   -8.1561    0.0000 B   0  0  0  0  0  0  0  0  0  0  0  0
   18.2034   -7.1292    0.0000 Cl  0  0  0  0  0  0  0  0  0  0  0  0
   16.4247   -8.1561    0.0000 O   0  0  0  0  0  0  0  0  0  0  0  0
   15.8318   -7.1292    0.0000 C   0  0  0  0  0  0  0  0  0  0  0  0
   14.6460   -7.1292    0.0000 C   0  0  0  0  0  0  0  0  0  0  0  0
   14.0531   -6.1023    0.0000 C   0  0  0  0  0  0  0  0  0  0  0  0
   18.2034   -9.1831    0.0000 O   0  0  0  0  0  0  0  0  0  0  0  0
   17.6105  -10.2100    0.0000 C   0  0  0  0  0  0  0  0  0  0  0  0
   18.2034  -11.2369    0.0000 C   0  0  0  0  0  0  0  0  0  0  0  0
   17.6105  -12.2638    0.0000 C   0  0  0  0  0  0  0  0  0  0  0  0
   12.8674   -6.1023    0.0000 C   0  0  0  0  0  0  0  0  0  0  0  0
   18.2034  -13.2907    0.0000 C   0  0  0  0  0  0  0  0  0  0  0  0
  1  2  1  0  0  0  0
  1  3  1  0  0  0  0
  3  4  1  0  0  0  0
  4  5  1  0  0  0  0
  5  6  1  0  0  0  0
  1  7  1  0  0  0  0
  7  8  1  0  0  0  0
  8  9  1  0  0  0  0
  9 10  1  0  0  0  0
  6 11  1  0  0  0  0
 10 12  1  0  0  0  0
M  END
$$$$
