
  ACD/LABS05232614482D

  1  0  0  0  0  0  0  0  0  0  1 V2000
   19.8699   -7.1948    0.0000 B   0  0  0  0  0  0  0  0  0  0  0  0
M  END
$$$$

  ACD/LABS05232614482D

 16 15  0  0  0  0  0  0  0  0  1 V2000
   13.5804   -5.7406    0.0000 P   0  0  0  0  0  0  0  0  0  0  0  0
   12.4564   -5.0917    0.0000 O   0  0  0  0  0  0  0  0  0  0  0  0
   14.7045   -5.0917    0.0000 O   0  0  0  0  0  0  0  0  0  0  0  0
   13.5804   -7.0386    0.0000 O   0  0  0  0  0  0  0  0  0  0  0  0
   12.4564   -7.6876    0.0000 C   0  0  0  0  0  0  0  0  0  0  0  0
   15.8285   -5.7406    0.0000 C   0  0  0  0  0  0  0  0  0  0  0  0
   11.3323   -5.7406    0.0000 C   0  0  0  0  0  0  0  0  0  0  0  0
   12.4564   -8.9855    0.0000 C   0  0  0  0  0  0  0  0  0  0  0  0
   11.3323   -9.6345    0.0000 C   0  0  0  0  0  0  0  0  0  0  0  0
   11.3323  -10.9324    0.0000 C   0  0  0  0  0  0  0  0  0  0  0  0
   16.9526   -5.0917    0.0000 C   0  0  0  0  0  0  0  0  0  0  0  0
   18.0767   -5.7406    0.0000 C   0  0  0  0  0  0  0  0  0  0  0  0
   19.2007   -5.0917    0.0000 C   0  0  0  0  0  0  0  0  0  0  0  0
   10.2082   -5.0917    0.0000 C   0  0  0  0  0  0  0  0  0  0  0  0
    9.0842   -5.7406    0.0000 C   0  0  0  0  0  0  0  0  0  0  0  0
    7.9601   -5.0917    0.0000 C   0  0  0  0  0  0  0  0  0  0  0  0
  1  2  1  0  0  0  0
  1  3  1  0  0  0  0
  1  4  1  0  0  0  0
  4  5  1  0  0  0  0
  3  6  1  0  0  0  0
  2  7  1  0  0  0  0
  5  8  1  0  0  0  0
  8  9  1  0  0  0  0
  9 10  1  0  0  0  0
  6 11  1  0  0  0  0
 11 12  1  0  0  0  0
 12 13  1  0  0  0  0
  7 14  1  0  0  0  0
 14 15  1  0  0  0  0
 15 16  1  0  0  0  0
M  END
$$$$
