
  ACD/LABS05232615372D

 10  9  0  0  0  0  0  0  0  0  1 V2000
   17.7307   -8.3231    0.0000 B   0  0  0  0  0  0  0  0  0  0  0  0
   18.3236   -7.2962    0.0000 Br  0  0  0  0  0  0  0  0  0  0  0  0
   16.5449   -8.3231    0.0000 C   0  0  0  0  0  0  0  0  0  0  0  0
   15.9520   -7.2962    0.0000 C   0  0  0  0  0  0  0  0  0  0  0  0
   14.7662   -7.2962    0.0000 C   0  0  0  0  0  0  0  0  0  0  0  0
   14.1733   -6.2693    0.0000 C   0  0  0  0  0  0  0  0  0  0  0  0
   18.3236   -9.3501    0.0000 C   0  0  0  0  0  0  0  0  0  0  0  0
   17.7307  -10.3770    0.0000 C   0  0  0  0  0  0  0  0  0  0  0  0
   18.3236  -11.4039    0.0000 C   0  0  0  0  0  0  0  0  0  0  0  0
   17.7307  -12.4308    0.0000 C   0  0  0  0  0  0  0  0  0  0  0  0
  1  2  1  0  0  0  0
  1  3  1  0  0  0  0
  3  4  1  0  0  0  0
  4  5  1  0  0  0  0
  5  6  1  0  0  0  0
  1  7  1  0  0  0  0
  7  8  1  0  0  0  0
  8  9  1  0  0  0  0
  9 10  1  0  0  0  0
M  END
$$$$
