
  ACD/LABS05232616202D

 13 12  0  0  0  0  0  0  0  0  1 V2000
   17.1378   -5.8648    0.0000 P   0  0  0  0  0  0  0  0  0  0  0  0
   15.9039   -5.8648    0.0000 C   0  0  0  0  0  0  0  0  0  0  0  0
   15.2870   -6.9334    0.0000 C   0  0  0  0  0  0  0  0  0  0  0  0
   14.0531   -6.9334    0.0000 C   0  0  0  0  0  0  0  0  0  0  0  0
   13.4362   -8.0019    0.0000 C   0  0  0  0  0  0  0  0  0  0  0  0
   17.7547   -6.9334    0.0000 C   0  0  0  0  0  0  0  0  0  0  0  0
   18.9886   -6.9334    0.0000 C   0  0  0  0  0  0  0  0  0  0  0  0
   19.6055   -8.0019    0.0000 C   0  0  0  0  0  0  0  0  0  0  0  0
   20.8393   -8.0019    0.0000 C   0  0  0  0  0  0  0  0  0  0  0  0
   17.7547   -4.7963    0.0000 C   0  0  0  0  0  0  0  0  0  0  0  0
   18.9886   -4.7963    0.0000 C   0  0  0  0  0  0  0  0  0  0  0  0
   19.6055   -3.7277    0.0000 C   0  0  0  0  0  0  0  0  0  0  0  0
   20.8393   -3.7277    0.0000 C   0  0  0  0  0  0  0  0  0  0  0  0
  1  2  1  0  0  0  0
  2  3  1  0  0  0  0
  3  4  1  0  0  0  0
  4  5  1  0  0  0  0
  1  6  1  0  0  0  0
  6  7  1  0  0  0  0
  7  8  1  0  0  0  0
  8  9  1  0  0  0  0
  1 10  1  0  0  0  0
 10 11  1  0  0  0  0
 11 12  1  0  0  0  0
 12 13  1  0  0  0  0
M  END
$$$$

  ACD/LABS05232616202D

  1  0  0  0  0  0  0  0  0  0  1 V2000
   15.9280   -4.2945    0.0000 B   0  0  0  0  0  0  0  0  0  0  0  0
M  END
$$$$
