
  ACD/LABS05232616022D

 14 13  0  0  0  0  0  0  0  0  1 V2000
   18.3796   -7.5166    0.0000 B   0  0  0  0  0  0  0  0  0  0  0  0
   18.9725   -6.4897    0.0000 Cl  0  0  0  0  0  0  0  0  0  0  0  0
   17.1939   -7.5166    0.0000 C   0  0  0  0  0  0  0  0  0  0  0  0
   16.6010   -6.4897    0.0000 C   0  0  0  0  0  0  0  0  0  0  0  0
   15.4152   -6.4897    0.0000 C   0  0  0  0  0  0  0  0  0  0  0  0
   14.8223   -5.4628    0.0000 C   0  0  0  0  0  0  0  0  0  0  0  0
   18.9725   -8.5435    0.0000 C   0  0  0  0  0  0  0  0  0  0  0  0
   18.3796   -9.5705    0.0000 C   0  0  0  0  0  0  0  0  0  0  0  0
   18.9725  -10.5974    0.0000 C   0  0  0  0  0  0  0  0  0  0  0  0
   18.3796  -11.6243    0.0000 C   0  0  0  0  0  0  0  0  0  0  0  0
   13.6365   -5.4628    0.0000 C   0  0  0  0  0  0  0  0  0  0  0  0
   18.9725  -12.6512    0.0000 C   0  0  0  0  0  0  0  0  0  0  0  0
   13.0436   -4.4359    0.0000 C   0  0  0  0  0  0  0  0  0  0  0  0
   18.3796  -13.6781    0.0000 C   0  0  0  0  0  0  0  0  0  0  0  0
  1  2  1  0  0  0  0
  1  3  1  0  0  0  0
  3  4  1  0  0  0  0
  4  5  1  0  0  0  0
  5  6  1  0  0  0  0
  1  7  1  0  0  0  0
  7  8  1  0  0  0  0
  8  9  1  0  0  0  0
  9 10  1  0  0  0  0
  6 11  1  0  0  0  0
 10 12  1  0  0  0  0
 11 13  1  0  0  0  0
 12 14  1  0  0  0  0
M  END
$$$$
