
  ACD/LABS05232616082D

 16 15  0  0  0  0  0  0  0  0  1 V2000
   18.4357   -7.3189    0.0000 B   0  0  0  0  0  0  0  0  0  0  0  0
   19.0286   -6.2919    0.0000 Cl  0  0  0  0  0  0  0  0  0  0  0  0
   17.2499   -7.3189    0.0000 O   0  0  0  0  0  0  0  0  0  0  0  0
   16.6571   -6.2919    0.0000 C   0  0  0  0  0  0  0  0  0  0  0  0
   15.4713   -6.2919    0.0000 C   0  0  0  0  0  0  0  0  0  0  0  0
   14.8784   -5.2650    0.0000 C   0  0  0  0  0  0  0  0  0  0  0  0
   19.0286   -8.3458    0.0000 O   0  0  0  0  0  0  0  0  0  0  0  0
   18.4357   -9.3727    0.0000 C   0  0  0  0  0  0  0  0  0  0  0  0
   19.0286  -10.3996    0.0000 C   0  0  0  0  0  0  0  0  0  0  0  0
   18.4357  -11.4265    0.0000 C   0  0  0  0  0  0  0  0  0  0  0  0
   13.6926   -5.2650    0.0000 C   0  0  0  0  0  0  0  0  0  0  0  0
   19.0286  -12.4534    0.0000 C   0  0  0  0  0  0  0  0  0  0  0  0
   13.0997   -4.2381    0.0000 C   0  0  0  0  0  0  0  0  0  0  0  0
   18.4357  -13.4804    0.0000 C   0  0  0  0  0  0  0  0  0  0  0  0
   11.9139   -4.2381    0.0000 C   0  0  0  0  0  0  0  0  0  0  0  0
   19.0286  -14.5073    0.0000 C   0  0  0  0  0  0  0  0  0  0  0  0
  1  2  1  0  0  0  0
  1  3  1  0  0  0  0
  3  4  1  0  0  0  0
  4  5  1  0  0  0  0
  5  6  1  0  0  0  0
  1  7  1  0  0  0  0
  7  8  1  0  0  0  0
  8  9  1  0  0  0  0
  9 10  1  0  0  0  0
  6 11  1  0  0  0  0
 10 12  1  0  0  0  0
 11 13  1  0  0  0  0
 12 14  1  0  0  0  0
 13 15  1  0  0  0  0
 14 16  1  0  0  0  0
M  END
$$$$
