
  ACD/LABS05232616222D

 19 18  0  0  0  0  0  0  0  0  1 V2000
   17.3381   -5.6805    0.0000 B   0  0  0  0  0  0  0  0  0  0  0  0
   17.9390   -6.7213    0.0000 O   0  0  0  0  0  0  0  0  0  0  0  0
   17.9390   -4.6397    0.0000 O   0  0  0  0  0  0  0  0  0  0  0  0
   16.1363   -5.6805    0.0000 O   0  0  0  0  0  0  0  0  0  0  0  0
   19.1408   -6.7213    0.0000 C   0  0  0  0  0  0  0  0  0  0  0  0
   19.7417   -7.7621    0.0000 C   0  0  0  0  0  0  0  0  0  0  0  0
   20.9435   -7.7621    0.0000 C   0  0  0  0  0  0  0  0  0  0  0  0
   21.5444   -8.8029    0.0000 C   0  0  0  0  0  0  0  0  0  0  0  0
   22.7462   -8.8029    0.0000 C   0  0  0  0  0  0  0  0  0  0  0  0
   19.1408   -4.6397    0.0000 C   0  0  0  0  0  0  0  0  0  0  0  0
   19.7417   -3.5990    0.0000 C   0  0  0  0  0  0  0  0  0  0  0  0
   20.9435   -3.5990    0.0000 C   0  0  0  0  0  0  0  0  0  0  0  0
   21.5444   -2.5582    0.0000 C   0  0  0  0  0  0  0  0  0  0  0  0
   22.7462   -2.5582    0.0000 C   0  0  0  0  0  0  0  0  0  0  0  0
   15.5354   -6.7213    0.0000 C   0  0  0  0  0  0  0  0  0  0  0  0
   14.3336   -6.7213    0.0000 C   0  0  0  0  0  0  0  0  0  0  0  0
   13.7327   -7.7621    0.0000 C   0  0  0  0  0  0  0  0  0  0  0  0
   12.5308   -7.7621    0.0000 C   0  0  0  0  0  0  0  0  0  0  0  0
   11.9299   -8.8029    0.0000 C   0  0  0  0  0  0  0  0  0  0  0  0
  1  2  1  0  0  0  0
  1  3  1  0  0  0  0
  1  4  1  0  0  0  0
  2  5  1  0  0  0  0
  5  6  1  0  0  0  0
  6  7  1  0  0  0  0
  7  8  1  0  0  0  0
  8  9  1  0  0  0  0
  3 10  1  0  0  0  0
 10 11  1  0  0  0  0
 11 12  1  0  0  0  0
 12 13  1  0  0  0  0
 13 14  1  0  0  0  0
  4 15  1  0  0  0  0
 15 16  1  0  0  0  0
 16 17  1  0  0  0  0
 17 18  1  0  0  0  0
 18 19  1  0  0  0  0
M  END
$$$$
