
  ACD/LABS05232615072D

  8  7  0  0  0  0  0  0  0  0  1 V2000
   22.4658   -8.6521    0.0000 B   0  0  0  0  0  0  0  0  0  0  0  0
   21.3762   -8.6521    0.0000 C   0  0  0  0  0  0  0  0  0  0  0  0
   20.8313   -7.7085    0.0000 C   0  0  0  0  0  0  0  0  0  0  0  0
   19.7417   -7.7085    0.0000 C   0  0  0  0  0  0  0  0  0  0  0  0
   23.0106   -7.7085    0.0000 C   0  0  0  0  0  0  0  0  0  0  0  0
   24.1002   -7.7085    0.0000 C   0  0  0  0  0  0  0  0  0  0  0  0
   24.6451   -6.7648    0.0000 C   0  0  0  0  0  0  0  0  0  0  0  0
   23.0106   -9.5958    0.0000 Br  0  0  0  0  0  0  0  0  0  0  0  0
  1  2  1  0  0  0  0
  2  3  1  0  0  0  0
  3  4  1  0  0  0  0
  1  5  1  0  0  0  0
  5  6  1  0  0  0  0
  6  7  1  0  0  0  0
  1  8  1  0  0  0  0
M  END
$$$$
