
  ACD/LABS05232615522D

 13 12  0  0  0  0  0  0  0  0  1 V2000
   17.3651   -8.5328    0.0000 B   0  0  0  0  0  0  0  0  0  0  0  0
   18.8083   -9.3661    0.0000 O   0  0  0  0  0  0  0  0  0  0  0  0
   17.3651   -6.8663    0.0000 O   0  0  0  0  0  0  0  0  0  0  0  0
   15.9218   -9.3661    0.0000 O   0  0  0  0  0  0  0  0  0  0  0  0
   15.9218   -6.0331    0.0000 C   0  0  0  0  0  0  0  0  0  0  0  0
   15.9218   -4.3666    0.0000 C   0  0  0  0  0  0  0  0  0  0  0  0
   18.8083  -11.0326    0.0000 C   0  0  0  0  0  0  0  0  0  0  0  0
   20.2515  -11.8658    0.0000 C   0  0  0  0  0  0  0  0  0  0  0  0
   15.9218  -11.0326    0.0000 C   0  0  0  0  0  0  0  0  0  0  0  0
   14.4786  -11.8658    0.0000 C   0  0  0  0  0  0  0  0  0  0  0  0
   14.4786   -3.5333    0.0000 C   0  0  0  0  0  0  0  0  0  0  0  0
   20.2515  -13.5324    0.0000 C   0  0  0  0  0  0  0  0  0  0  0  0
   14.4786  -13.5324    0.0000 C   0  0  0  0  0  0  0  0  0  0  0  0
  1  2  1  0  0  0  0
  1  3  1  0  0  0  0
  1  4  1  0  0  0  0
  3  5  1  0  0  0  0
  5  6  1  0  0  0  0
  2  7  1  0  0  0  0
  7  8  1  0  0  0  0
  4  9  1  0  0  0  0
  9 10  1  0  0  0  0
  6 11  1  0  0  0  0
  8 12  1  0  0  0  0
 10 13  1  0  0  0  0
M  END
$$$$
