
  ACD/LABS05232615432D

 12 11  0  0  0  0  0  0  0  0  1 V2000
   20.0962   -9.5022    0.0000 B   0  0  0  0  0  0  0  0  0  0  0  0
   21.0537   -8.9494    0.0000 Cl  0  0  0  0  0  0  0  0  0  0  0  0
   19.1386   -8.9494    0.0000 N   0  0  0  0  0  0  0  0  0  0  0  0
   20.0962  -10.6079    0.0000 N   0  0  0  0  0  0  0  0  0  0  0  0
   19.1386   -7.8438    0.0000 C   0  0  0  0  0  0  0  0  0  0  0  0
   21.0537  -11.1607    0.0000 C   0  0  0  0  0  0  0  0  0  0  0  0
   20.2443   -7.8438    0.0000 C   0  0  0  0  0  0  0  0  0  0  0  0
   20.5009  -12.1183    0.0000 C   0  0  0  0  0  0  0  0  0  0  0  0
   21.6065  -10.2032    0.0000 C   0  0  0  0  0  0  0  0  0  0  0  0
   22.0112  -11.7136    0.0000 C   0  0  0  0  0  0  0  0  0  0  0  0
   18.0330   -7.8438    0.0000 C   0  0  0  0  0  0  0  0  0  0  0  0
   19.1386   -6.7381    0.0000 C   0  0  0  0  0  0  0  0  0  0  0  0
  1  2  1  0  0  0  0
  1  3  1  0  0  0  0
  1  4  1  0  0  0  0
  3  5  1  0  0  0  0
  4  6  1  0  0  0  0
  5  7  1  0  0  0  0
  6  8  1  0  0  0  0
  6  9  1  0  0  0  0
  6 10  1  0  0  0  0
  5 11  1  0  0  0  0
  5 12  1  0  0  0  0
M  END
$$$$
