
  ACD/LABS05232616182D

 16 15  0  0  0  0  0  0  0  0  1 V2000
   20.9559   -5.1852    0.0000 N   0  0  0  0  0  0  0  0  0  0  0  0
   19.8996   -4.5753    0.0000 C   0  0  0  0  0  0  0  0  0  0  0  0
   18.9679   -3.7664    0.0000 C   0  0  0  0  0  0  0  0  0  0  0  0
   19.0434   -5.4352    0.0000 C   0  0  0  0  0  0  0  0  0  0  0  0
   20.5929   -3.5547    0.0000 C   0  0  0  0  0  0  0  0  0  0  0  0
   20.9878   -6.3955    0.0000 B   0  0  0  0  0  0  0  0  0  0  0  0
   22.0700   -6.9047    0.0000 N   0  0  0  0  0  0  0  0  0  0  0  0
   23.1421   -6.3606    0.0000 C   0  0  0  0  0  0  0  0  0  0  0  0
   24.3048   -5.9396    0.0000 C   0  0  0  0  0  0  0  0  0  0  0  0
   23.6538   -7.4829    0.0000 C   0  0  0  0  0  0  0  0  0  0  0  0
   22.8394   -5.1819    0.0000 C   0  0  0  0  0  0  0  0  0  0  0  0
   20.0044   -7.0667    0.0000 N   0  0  0  0  0  0  0  0  0  0  0  0
   19.9111   -8.2627    0.0000 C   0  0  0  0  0  0  0  0  0  0  0  0
   19.7089   -9.4785    0.0000 C   0  0  0  0  0  0  0  0  0  0  0  0
   18.6853   -8.1531    0.0000 C   0  0  0  0  0  0  0  0  0  0  0  0
   21.0905   -8.5714    0.0000 C   0  0  0  0  0  0  0  0  0  0  0  0
  1  2  1  0  0  0  0
  2  3  1  0  0  0  0
  2  4  1  0  0  0  0
  2  5  1  0  0  0  0
  1  6  1  0  0  0  0
  7  8  1  0  0  0  0
  8  9  1  0  0  0  0
  8 10  1  0  0  0  0
  8 11  1  0  0  0  0
  6  7  1  0  0  0  0
 12 13  1  0  0  0  0
 13 14  1  0  0  0  0
 13 15  1  0  0  0  0
 13 16  1  0  0  0  0
  6 12  1  0  0  0  0
M  END
$$$$
