
  ACD/LABS06052619512D

  6  5  0  0  0  0  0  0  0  0  1 V2000
   21.3281   -7.0105    0.0000 C   0  0  0  0  0  0  0  0  0  0  0  0
   22.6581   -7.0105    0.0000 C   0  0  0  0  0  0  0  0  0  0  0  0
   20.6631   -5.8587    0.0000 Br  0  0  0  0  0  0  0  0  0  0  0  0
   20.6631   -8.1624    0.0000 Br  0  0  0  0  0  0  0  0  0  0  0  0
   23.3231   -5.8587    0.0000 Br  0  0  0  0  0  0  0  0  0  0  0  0
   23.3231   -8.1624    0.0000 Br  0  0  0  0  0  0  0  0  0  0  0  0
  1  2  1  0  0  0  0
  1  3  1  0  0  0  0
  1  4  1  0  0  0  0
  2  5  1  0  0  0  0
  2  6  1  0  0  0  0
M  END
$$$$
