
  ACD/LABS05262611172D

  8  7  0  0  0  0  0  0  0  0  1 V2000
   19.0070   -7.9800    0.0000 C   0  0  0  0  0  0  0  0  0  0  0  0
   19.0070   -9.3100    0.0000 O   0  0  0  0  0  0  0  0  0  0  0  0
   20.1588   -7.3150    0.0000 O   0  0  0  0  0  0  0  0  0  0  0  0
   17.8552   -7.3150    0.0000 C   0  0  0  0  0  0  0  0  0  0  0  0
   21.3106   -7.9800    0.0000 C   0  0  0  0  0  0  0  0  0  0  0  0
   22.4624   -7.3150    0.0000 C   0  0  0  0  0  0  0  0  0  0  0  0
   20.1588   -9.9750    0.0000 C   0  0  0  0  0  0  0  0  0  0  0  0
   20.1588  -11.3050    0.0000 C   0  0  0  0  0  0  0  0  0  0  0  0
  1  2  1  0  0  0  0
  1  3  1  0  0  0  0
  1  4  1  0  0  0  0
  3  5  1  0  0  0  0
  5  6  1  0  0  0  0
  2  7  1  0  0  0  0
  7  8  1  0  0  0  0
M  END
$$$$
