
  ACD/LABS05262611072D

  4  3  0  0  0  0  0  0  0  0  1 V2000
   17.9109   -8.0281    0.0000 C   0  0  0  0  0  0  0  0  0  0  0  0
   17.2459   -6.8763    0.0000 Cl  0  0  0  0  0  0  0  0  0  0  0  0
   17.2459   -9.1799    0.0000 Cl  0  0  0  0  0  0  0  0  0  0  0  0
   19.2409   -8.0281    0.0000 C   0  0  0  0  0  0  0  0  0  0  0  0
  1  2  1  0  0  0  0
  1  3  1  0  0  0  0
  1  4  1  0  0  0  0
M  END
$$$$
