
  ACD/LABS06052620032D

 10 10  0  0  0  0  0  0  0  0  1 V2000
   19.1789   -7.7557    0.0000 C   0  0  0  0  0  0  0  0  0  0  0  0
   19.1789   -9.0857    0.0000 C   0  0  0  0  0  0  0  0  0  0  0  0
   18.0271   -7.0907    0.0000 C   0  0  0  0  0  0  0  0  0  0  0  0
   18.0271   -9.7507    0.0000 C   0  0  0  0  0  0  0  0  0  0  0  0
   16.8753   -7.7557    0.0000 C   0  0  0  0  0  0  0  0  0  0  0  0
   16.8753   -9.0857    0.0000 C   0  0  0  0  0  0  0  0  0  0  0  0
   18.0271   -5.7607    0.0000 C   0  0  0  0  0  0  0  0  0  0  0  0
   20.3307   -7.0907    0.0000 C   0  0  0  0  0  0  0  0  0  0  0  0
   18.0271  -11.0807    0.0000 C   0  0  0  0  0  0  0  0  0  0  0  0
   15.7235   -9.7507    0.0000 C   0  0  0  0  0  0  0  0  0  0  0  0
  1  2  1  0  0  0  0
  1  3  2  0  0  0  0
  2  4  2  0  0  0  0
  3  5  1  0  0  0  0
  4  6  1  0  0  0  0
  5  6  2  0  0  0  0
  3  7  1  0  0  0  0
  1  8  1  0  0  0  0
  4  9  1  0  0  0  0
  6 10  1  0  0  0  0
M  END
$$$$
