
  ACD/LABS05292609582D

  4  3  0  0  0  0  0  0  0  0  1 V2000
   20.0526   -8.1643    0.0000 C   0  0  0  0  0  0  0  0  0  0  0  0
   20.0526   -9.4943    0.0000 C   0  0  0  0  0  0  0  0  0  0  0  0
   21.2045  -10.1593    0.0000 O   0  0  0  0  0  0  0  0  0  0  0  0
   18.9008   -7.4993    0.0000 O   0  0  0  0  0  0  0  0  0  0  0  0
  1  2  1  0  0  0  0
  2  3  1  0  0  0  0
  1  4  1  0  0  0  0
M  END
$$$$
