
  ACD/LABS05252610382D

  4  3  0  0  0  0  0  0  0  0  1 V2000
   19.0584   -6.4728    0.0000 C   0  0  0  0  0  0  0  0  0  0  0  0
   20.2142   -7.1307    0.0000 C   0  0  0  0  0  0  0  0  0  0  0  0
   21.3523   -7.7887    0.0000 C   0  0  0  0  0  0  0  0  0  0  0  0
   22.5081   -7.1307    0.0000 C   0  0  0  0  0  0  0  0  0  0  0  0
  1  2  2  0  0  0  0
  2  3  2  0  0  0  0
  3  4  1  0  0  0  0
M  END
$$$$
