
  ACD/LABS05292609552D

  5  5  0  0  0  0  0  0  0  0  1 V2000
   21.0526   -5.1969    0.0000 O   0  0  0  0  0  0  0  0  0  0  0  0
   22.2044   -5.8619    0.0000 C   0  0  0  0  0  0  0  0  0  0  0  0
   21.0526   -6.5269    0.0000 C   0  0  0  0  0  0  0  0  0  0  0  0
   20.3876   -7.6787    0.0000 C   0  0  0  0  0  0  0  0  0  0  0  0
   21.0526   -8.8305    0.0000 C   0  0  0  0  0  0  0  0  0  0  0  0
  1  2  1  0  0  0  0
  2  3  1  0  0  0  0
  3  1  1  0  0  0  0
  3  4  1  0  0  0  0
  4  5  1  0  0  0  0
M  END
$$$$
