
  ACD/LABS06052620262D

  9  9  0  0  0  0  0  0  0  0  1 V2000
   20.1564   -6.5779    0.0000 C   0  0  0  0  0  0  0  0  0  0  0  0
   20.1564   -7.9079    0.0000 C   0  0  0  0  0  0  0  0  0  0  0  0
   19.0045   -5.9129    0.0000 C   0  0  0  0  0  0  0  0  0  0  0  0
   19.0045   -8.5729    0.0000 C   0  0  0  0  0  0  0  0  0  0  0  0
   17.8527   -6.5779    0.0000 C   0  0  0  0  0  0  0  0  0  0  0  0
   17.8527   -7.9079    0.0000 C   0  0  0  0  0  0  0  0  0  0  0  0
   19.0046   -4.5829    0.0000 C   0  0  0  0  0  0  0  0  0  0  0  0
   21.3121   -8.5729    0.0000 C   0  0  0  0  0  0  0  0  0  0  0  0
   16.6971   -8.5889    0.0000 C   0  0  0  0  0  0  0  0  0  0  0  0
  1  2  1  0  0  0  0
  1  3  2  0  0  0  0
  2  4  2  0  0  0  0
  3  5  1  0  0  0  0
  4  6  1  0  0  0  0
  5  6  2  0  0  0  0
  3  7  1  0  0  0  0
  2  8  1  0  0  0  0
  6  9  1  0  0  0  0
M  END
$$$$
