
  ACD/LABS05252611022D

  6  5  0  0  0  0  0  0  0  0  1 V2000
   18.9615   -6.6189    0.0000 C   0  0  0  0  0  0  0  0  0  0  0  0
   20.2915   -6.6189    0.0000 C   0  0  0  0  0  0  0  0  0  0  0  0
   20.9565   -7.7707    0.0000 C   0  0  0  0  0  0  0  0  0  0  0  0
   22.2865   -7.7707    0.0000 C   0  0  0  0  0  0  0  0  0  0  0  0
   22.9515   -8.9225    0.0000 O   0  0  0  0  0  0  0  0  0  0  0  0
   20.9565   -5.4671    0.0000 O   0  0  0  0  0  0  0  0  0  0  0  0
  1  2  1  0  0  0  0
  2  3  1  0  0  0  0
  3  4  1  0  0  0  0
  4  5  1  0  0  0  0
  2  6  1  0  0  0  0
M  END
$$$$
