
  ACD/LABS05252610392D

  4  3  0  0  0  0  0  0  0  0  1 V2000
   19.1208   -6.5548    0.0000 C   0  0  0  0  0  0  0  0  0  0  0  0
   20.4508   -6.5548    0.0000 C   0  0  0  0  0  0  0  0  0  0  0  0
   21.1158   -7.7066    0.0000 C   0  0  0  0  0  0  0  0  0  0  0  0
   22.4458   -7.7066    0.0000 C   0  0  0  0  0  0  0  0  0  0  0  0
  1  2  2  0  0  0  0
  2  3  1  0  0  0  0
  3  4  2  0  0  0  0
M  END
$$$$
