
  ACD/LABS06052619162D

  5  4  0  0  0  0  0  0  0  0  1 V2000
   15.0146   -7.0586    0.0000 C   0  0  0  0  0  0  0  0  0  0  0  0
   15.0146   -8.3886    0.0000 C   0  0  0  0  0  0  0  0  0  0  0  0
   16.1664   -9.0536    0.0000 C   0  0  0  0  0  0  0  0  0  0  0  0
   13.8628   -6.3936    0.0000 O   0  0  0  0  0  0  0  0  0  0  0  0
   16.1664  -10.3836    0.0000 O   0  0  0  0  0  0  0  0  0  0  0  0
  1  2  1  0  0  0  0
  2  3  1  0  0  0  0
  1  4  1  0  0  0  0
  3  5  1  0  0  0  0
M  END
$$$$
