
  ACD/LABS05292609402D

  6  6  0  0  0  0  0  0  0  0  1 V2000
   22.4158   -8.8213    0.0000 C   0  0  0  0  0  0  0  0  0  0  0  0
   22.4158  -10.1513    0.0000 C   0  0  0  0  0  0  0  0  0  0  0  0
   21.2639   -8.1563    0.0000 O   0  0  0  0  0  0  0  0  0  0  0  0
   21.2639  -10.8163    0.0000 O   0  0  0  0  0  0  0  0  0  0  0  0
   20.1121   -8.8213    0.0000 C   0  0  0  0  0  0  0  0  0  0  0  0
   20.1121  -10.1513    0.0000 C   0  0  0  0  0  0  0  0  0  0  0  0
  1  2  1  0  0  0  0
  1  3  1  0  0  0  0
  2  4  1  0  0  0  0
  3  5  1  0  0  0  0
  4  6  1  0  0  0  0
  5  6  1  0  0  0  0
M  END
$$$$
