
  ACD/LABS05252611032D

  6  5  0  0  0  0  0  0  0  0  1 V2000
   19.2955   -6.0416    0.0000 C   0  0  0  0  0  0  0  0  0  0  0  0
   19.9605   -7.1934    0.0000 C   0  0  0  0  0  0  0  0  0  0  0  0
   21.2905   -7.1934    0.0000 C   0  0  0  0  0  0  0  0  0  0  0  0
   21.9555   -8.3452    0.0000 C   0  0  0  0  0  0  0  0  0  0  0  0
   23.2855   -8.3452    0.0000 O   0  0  0  0  0  0  0  0  0  0  0  0
   17.9655   -6.0416    0.0000 O   0  0  0  0  0  0  0  0  0  0  0  0
  1  2  1  0  0  0  0
  2  3  1  0  0  0  0
  3  4  1  0  0  0  0
  4  5  1  0  0  0  0
  1  6  1  0  0  0  0
M  END
$$$$
