
  ACD/LABS06012611032D

  6  5  0  0  0  0  0  0  0  0  1 V2000
   10.2910   -6.6300    0.0000 C   0  0  0  0  0  0  0  0  0  0  0  0
   11.4428   -5.9650    0.0000 C   0  0  0  0  0  0  0  0  0  0  0  0
   12.5946   -6.6300    0.0000 C   0  0  0  0  0  0  0  0  0  0  0  0
   13.7464   -5.9650    0.0000 C   0  0  0  0  0  0  0  0  0  0  0  0
   14.8982   -6.6300    0.0000 C   0  0  0  0  0  0  0  0  0  0  0  0
   16.0500   -5.9650    0.0000 C   0  0  0  0  0  0  0  0  0  0  0  0
  1  2  2  0  0  0  0
  2  3  1  0  0  0  0
  3  4  1  0  0  0  0
  4  5  1  0  0  0  0
  5  6  2  0  0  0  0
M  END
$$$$
