
  ACD/LABS06012611102D

  8  7  0  0  0  0  0  0  0  0  1 V2000
   16.6538   -5.6064    0.0000 C   0  0  0  0  0  0  0  0  0  0  0  0
   17.8057   -6.2714    0.0000 C   0  0  0  0  0  0  0  0  0  0  0  0
   18.9575   -5.6064    0.0000 C   0  0  0  0  0  0  0  0  0  0  0  0
   20.1093   -6.2714    0.0000 C   0  0  0  0  0  0  0  0  0  0  0  0
   21.2611   -5.6064    0.0000 C   0  0  0  0  0  0  0  0  0  0  0  0
   22.4129   -6.2714    0.0000 C   0  0  0  0  0  0  0  0  0  0  0  0
   23.5647   -5.6064    0.0000 O   0  0  0  0  0  0  0  0  0  0  0  0
   15.5020   -6.2714    0.0000 O   0  0  0  0  0  0  0  0  0  0  0  0
  1  2  1  0  0  0  0
  2  3  1  0  0  0  0
  3  4  1  0  0  0  0
  4  5  1  0  0  0  0
  5  6  1  0  0  0  0
  6  7  1  0  0  0  0
  1  8  1  0  0  0  0
M  END
$$$$
