
  ACD/LABS05242623302D

  5  4  0  0  0  0  0  0  0  0  1 V2000
   16.5830   -5.2960    0.0000 C   0  0  0  0  0  0  0  0  0  0  0  0
   17.2480   -4.1442    0.0000 Br  0  0  0  0  0  0  0  0  0  0  0  0
   15.2530   -5.2960    0.0000 C   0  0  0  0  0  0  0  0  0  0  0  0
   14.5880   -4.1442    0.0000 C   0  0  0  0  0  0  0  0  0  0  0  0
   14.5880   -6.4478    0.0000 C   0  0  0  0  0  0  0  0  0  0  0  0
  1  2  1  0  0  0  0
  1  3  1  0  0  0  0
  3  4  1  0  0  0  0
  3  5  1  0  0  0  0
M  END
$$$$
