
  ACD/LABS05242623242D

  5  4  0  0  0  0  0  0  0  0  1 V2000
   12.9994   -5.4362    0.0000 C   0  0  0  0  0  0  0  0  0  0  0  0
   14.1512   -4.7712    0.0000 C   0  0  0  0  0  0  0  0  0  0  0  0
   15.3030   -5.4362    0.0000 C   0  0  0  0  0  0  0  0  0  0  0  0
   16.4548   -4.7712    0.0000 C   0  0  0  0  0  0  0  0  0  0  0  0
   17.6066   -5.4362    0.0000 Br  0  0  0  0  0  0  0  0  0  0  0  0
  1  2  1  0  0  0  0
  2  3  1  0  0  0  0
  3  4  1  0  0  0  0
  4  5  1  0  0  0  0
M  END
$$$$
