
  ACD/LABS05242623322D

 11 12  0  0  0  0  0  0  0  0  1 V2000
   16.1344   -6.1773    0.0000 C   0  0  0  0  0  0  0  0  0  0  0  0
   16.1344   -7.5073    0.0000 C   0  0  0  0  0  0  0  0  0  0  0  0
   14.9825   -5.5123    0.0000 C   0  0  0  0  0  0  0  0  0  0  0  0
   14.9825   -8.1723    0.0000 C   0  0  0  0  0  0  0  0  0  0  0  0
   13.8307   -6.1773    0.0000 C   0  0  0  0  0  0  0  0  0  0  0  0
   13.8307   -7.5073    0.0000 C   0  0  0  0  0  0  0  0  0  0  0  0
   17.2861   -5.5124    0.0000 C   0  0  0  0  0  0  0  0  0  0  0  0
   18.4379   -6.1774    0.0000 C   0  0  0  0  0  0  0  0  0  0  0  0
   17.2861   -8.1723    0.0000 C   0  0  0  0  0  0  0  0  0  0  0  0
   18.4379   -7.5073    0.0000 C   0  0  0  0  0  0  0  0  0  0  0  0
   17.2900   -4.1823    0.0000 Br  0  0  0  0  0  0  0  0  0  0  0  0
  1  3  2  0  0  0  0
  2  4  2  0  0  0  0
  3  5  1  0  0  0  0
  4  6  1  0  0  0  0
  5  6  2  0  0  0  0
  1  7  1  0  0  0  0
  1  2  1  0  0  0  0
  7  8  2  0  0  0  0
  2  9  1  0  0  0  0
  8 10  1  0  0  0  0
  9 10  2  0  0  0  0
  7 11  1  0  0  0  0
M  END
$$$$
