
  ACD/LABS05252611202D

  4  3  0  0  0  0  0  0  0  0  1 V2000
   18.9725   -6.3788    0.0000 C   0  0  0  0  0  0  0  0  0  0  0  0
   20.1243   -7.0438    0.0000 C   0  0  0  0  0  0  0  0  0  0  0  0
   20.1243   -8.3738    0.0000 C   0  0  0  0  0  0  0  0  0  0  0  0
   21.2761   -9.0388    0.0000 C   0  0  0  0  0  0  0  0  0  0  0  0
  1  2  1  0  0  0  0
  2  3  1  0  0  0  0
  3  4  2  0  0  0  0
M  END
$$$$
