
  ACD/LABS05252611122D

  5  4  0  0  0  0  0  0  0  0  1 V2000
   19.1268   -6.5563    0.0000 C   0  0  0  0  0  0  0  0  0  0  0  0
   20.4568   -6.5563    0.0000 C   0  0  0  0  0  0  0  0  0  0  0  0
   21.1218   -7.7081    0.0000 C   0  0  0  0  0  0  0  0  0  0  0  0
   22.4518   -7.7081    0.0000 C   0  0  0  0  0  0  0  0  0  0  0  0
   23.1168   -8.8599    0.0000 S   0  0  0  0  0  0  0  0  0  0  0  0
  1  2  1  0  0  0  0
  2  3  1  0  0  0  0
  3  4  1  0  0  0  0
  4  5  1  0  0  0  0
M  END
$$$$
