
  ACD/LABS05252612192D

 10 10  0  0  0  0  0  0  0  0  2 V2000
   18.8637   -8.7607    0.0000 Cl  0  0  0  0  0  0  0  0  0  0  0  0
   20.0155   -8.0957    0.0000 C   0  0  0  0  0  0  0  0  0  0  0  0
   20.0155   -6.7657    0.0000 C   0  0  0  0  0  0  0  0  0  0  0  0
   21.1673   -8.7607    0.0000 C   0  0  0  0  0  0  0  0  0  0  0  0
   21.1673   -6.1007    0.0000 C   0  0  0  0  0  0  0  0  0  0  0  0
   22.3191   -8.0957    0.0000 C   0  0  0  0  0  0  0  0  0  0  0  0
   22.3191   -6.7657    0.0000 C   0  0  0  0  0  0  0  0  0  0  0  0
   21.1673  -10.0907    0.0000 N   0  3  0  0  0  0  0  0  0  0  0  0
   22.3191  -10.7557    0.0000 O   0  0  0  0  0  0  0  0  0  0  0  0
   20.0155  -10.7557    0.0000 O   0  5  0  0  0  0  0  0  0  0  0  0
  2  3  1  0  0  0  0
  2  4  2  0  0  0  0
  3  5  2  0  0  0  0
  5  7  1  0  0  0  0
  6  7  2  0  0  0  0
  1  2  1  0  0  0  0
  4  6  1  0  0  0  0
  4  8  1  0  0  0  0
  8  9  2  0  0  0  0
  8 10  1  0  0  0  0
M  CHG  2   8   1  10  -1
M  END
$$$$
