
  ACD/LABS05252612182D

 11 12  0  0  0  0  0  0  0  0  1 V2000
   18.7971   -8.7642    0.0000 Cl  0  0  0  0  0  0  0  0  0  0  0  0
   19.9489   -8.0992    0.0000 C   0  0  0  0  0  0  0  0  0  0  0  0
   19.9489   -6.7692    0.0000 C   0  0  0  0  0  0  0  0  0  0  0  0
   21.1007   -8.7642    0.0000 C   0  0  0  0  0  0  0  0  0  0  0  0
   21.1007   -6.1042    0.0000 C   0  0  0  0  0  0  0  0  0  0  0  0
   22.2525   -8.0992    0.0000 C   0  0  0  0  0  0  0  0  0  0  0  0
   22.2525   -6.7692    0.0000 C   0  0  0  0  0  0  0  0  0  0  0  0
   21.1007  -10.0942    0.0000 C   0  0  0  0  0  0  0  0  0  0  0  0
   22.2525  -10.7592    0.0000 C   0  0  0  0  0  0  0  0  0  0  0  0
   23.4043   -8.7642    0.0000 C   0  0  0  0  0  0  0  0  0  0  0  0
   23.4043  -10.0942    0.0000 C   0  0  0  0  0  0  0  0  0  0  0  0
  2  3  1  0  0  0  0
  2  4  2  0  0  0  0
  3  5  2  0  0  0  0
  5  7  1  0  0  0  0
  6  7  2  0  0  0  0
  1  2  1  0  0  0  0
  4  8  1  0  0  0  0
  4  6  1  0  0  0  0
  8  9  2  0  0  0  0
  6 10  1  0  0  0  0
  9 11  1  0  0  0  0
 10 11  2  0  0  0  0
M  END
$$$$
