
  ACD/LABS05252612052D

  5  4  0  0  0  0  0  0  0  0  1 V2000
   16.5007   -8.7692    0.0000 C   0  0  0  0  0  0  0  0  0  0  0  0
   17.6525   -8.1042    0.0000 C   0  0  0  0  0  0  0  0  0  0  0  0
   18.8043   -8.7692    0.0000 C   0  0  0  0  0  0  0  0  0  0  0  0
   19.9561   -8.1042    0.0000 C   0  0  0  0  0  0  0  0  0  0  0  0
   21.1079   -8.7692    0.0000 Cl  0  0  0  0  0  0  0  0  0  0  0  0
  1  2  1  0  0  0  0
  2  3  1  0  0  0  0
  3  4  1  0  0  0  0
  4  5  1  0  0  0  0
M  END
$$$$
