
  ACD/LABS05252612242D

  9  8  0  0  0  0  0  0  0  0  1 V2000
   16.4989   -8.0982    0.0000 C   0  0  0  0  0  0  0  0  0  0  0  0
   17.6507   -8.7632    0.0000 C   0  0  0  0  0  0  0  0  0  0  0  0
   18.8025   -8.0982    0.0000 C   0  0  0  0  0  0  0  0  0  0  0  0
   19.9543   -8.7632    0.0000 C   0  0  0  0  0  0  0  0  0  0  0  0
   21.1062   -8.0982    0.0000 Cl  0  0  0  0  0  0  0  0  0  0  0  0
   15.3471   -8.7632    0.0000 C   0  0  0  0  0  0  0  0  0  0  0  0
   14.1953   -8.0982    0.0000 C   0  0  0  0  0  0  0  0  0  0  0  0
   13.0435   -8.7632    0.0000 C   0  0  0  0  0  0  0  0  0  0  0  0
   11.8916   -8.0982    0.0000 C   0  0  0  0  0  0  0  0  0  0  0  0
  1  2  1  0  0  0  0
  2  3  1  0  0  0  0
  3  4  1  0  0  0  0
  4  5  1  0  0  0  0
  1  6  1  0  0  0  0
  6  7  1  0  0  0  0
  7  8  1  0  0  0  0
  8  9  1  0  0  0  0
M  END
$$$$
