
  ACD/LABS06012611022D

 17 16  0  0  0  0  0  0  0  0  1 V2000
   10.2910   -6.6300    0.0000 C   0  0  0  0  0  0  0  0  0  0  0  0
   11.4428   -5.9650    0.0000 C   0  0  0  0  0  0  0  0  0  0  0  0
   12.5946   -6.6300    0.0000 C   0  0  0  0  0  0  0  0  0  0  0  0
   13.7464   -5.9650    0.0000 C   0  0  0  0  0  0  0  0  0  0  0  0
   14.8982   -6.6300    0.0000 C   0  0  0  0  0  0  0  0  0  0  0  0
   16.0500   -5.9650    0.0000 C   0  0  0  0  0  0  0  0  0  0  0  0
   17.2019   -6.6300    0.0000 C   0  0  0  0  0  0  0  0  0  0  0  0
   18.3537   -5.9650    0.0000 C   0  0  0  0  0  0  0  0  0  0  0  0
   19.5055   -6.6300    0.0000 C   0  0  0  0  0  0  0  0  0  0  0  0
   20.6573   -5.9650    0.0000 C   0  0  0  0  0  0  0  0  0  0  0  0
   21.8091   -6.6300    0.0000 C   0  0  0  0  0  0  0  0  0  0  0  0
   22.9609   -5.9650    0.0000 C   0  0  0  0  0  0  0  0  0  0  0  0
   24.1127   -6.6300    0.0000 C   0  0  0  0  0  0  0  0  0  0  0  0
   25.2646   -5.9650    0.0000 C   0  0  0  0  0  0  0  0  0  0  0  0
   26.4164   -6.6300    0.0000 C   0  0  0  0  0  0  0  0  0  0  0  0
   27.5682   -5.9650    0.0000 C   0  0  0  0  0  0  0  0  0  0  0  0
   28.7200   -6.6300    0.0000 O   0  0  0  0  0  0  0  0  0  0  0  0
  1  2  1  0  0  0  0
  2  3  1  0  0  0  0
  3  4  1  0  0  0  0
  4  5  1  0  0  0  0
  5  6  1  0  0  0  0
  6  7  1  0  0  0  0
  7  8  1  0  0  0  0
  8  9  1  0  0  0  0
  9 10  1  0  0  0  0
 10 11  1  0  0  0  0
 11 12  1  0  0  0  0
 12 13  1  0  0  0  0
 13 14  1  0  0  0  0
 14 15  1  0  0  0  0
 15 16  1  0  0  0  0
 16 17  1  0  0  0  0
M  END
$$$$
