
  ACD/LABS06012611322D

  6  5  0  0  0  0  0  0  0  0  1 V2000
   16.6538   -6.6039    0.0000 C   0  0  0  0  0  0  0  0  0  0  0  0
   17.8057   -5.9389    0.0000 C   0  0  0  0  0  0  0  0  0  0  0  0
   18.9575   -5.2739    0.0000 C   0  0  0  0  0  0  0  0  0  0  0  0
   20.1093   -5.9389    0.0000 C   0  0  0  0  0  0  0  0  0  0  0  0
   21.2611   -5.2739    0.0000 C   0  0  0  0  0  0  0  0  0  0  0  0
   22.4129   -5.9389    0.0000 C   0  0  0  0  0  0  0  0  0  0  0  0
  1  2  3  0  0  0  0
  2  3  1  0  0  0  0
  3  4  1  0  0  0  0
  4  5  1  0  0  0  0
  5  6  1  0  0  0  0
M  END
$$$$
