
  ACD/LABS06052615592D

  4  3  0  0  0  0  0  0  0  0  1 V2000
   22.9445   -4.9622    0.0000 C   0  0  0  0  0  0  0  0  0  0  0  0
   23.3691   -5.6977    0.0000 I   0  0  0  0  0  0  0  0  0  0  0  0
   23.3691   -4.2267    0.0000 C   0  0  0  0  0  0  0  0  0  0  0  0
   22.9445   -3.4912    0.0000 C   0  0  0  0  0  0  0  0  0  0  0  0
  1  2  1  0  0  0  0
  1  3  1  0  0  0  0
  3  4  1  0  0  0  0
M  END
$$$$
