
  ACD/LABS06052613092D

  6  5  0  0  0  0  0  0  0  0  1 V2000
   16.7981   -8.5929    0.0000 C   0  0  0  0  0  0  0  0  0  0  0  0
   17.9499   -7.9279    0.0000 C   0  0  0  0  0  0  0  0  0  0  0  0
   19.1017   -8.5929    0.0000 C   0  0  0  0  0  0  0  0  0  0  0  0
   20.2535   -7.9279    0.0000 C   0  0  0  0  0  0  0  0  0  0  0  0
   21.4053   -8.5929    0.0000 C   0  0  0  0  0  0  0  0  0  0  0  0
   22.5571   -7.9279    0.0000 I   0  0  0  0  0  0  0  0  0  0  0  0
  1  2  1  0  0  0  0
  2  3  1  0  0  0  0
  3  4  1  0  0  0  0
  4  5  1  0  0  0  0
  5  6  1  0  0  0  0
M  END
$$$$
