
  ACD/LABS06052617272D

 11 12  0  0  0  0  0  0  0  0  1 V2000
   18.9867   -4.6710    0.0000 C   0  0  0  0  0  0  0  0  0  0  0  0
   18.9867   -6.0010    0.0000 C   0  0  0  0  0  0  0  0  0  0  0  0
   17.8348   -4.0060    0.0000 C   0  0  0  0  0  0  0  0  0  0  0  0
   17.8348   -6.6660    0.0000 C   0  0  0  0  0  0  0  0  0  0  0  0
   16.6830   -4.6710    0.0000 C   0  0  0  0  0  0  0  0  0  0  0  0
   16.6830   -6.0010    0.0000 C   0  0  0  0  0  0  0  0  0  0  0  0
   20.1384   -4.0061    0.0000 C   0  0  0  0  0  0  0  0  0  0  0  0
   21.2902   -4.6712    0.0000 C   0  0  0  0  0  0  0  0  0  0  0  0
   20.1384   -6.6660    0.0000 C   0  0  0  0  0  0  0  0  0  0  0  0
   21.2901   -6.0011    0.0000 C   0  0  0  0  0  0  0  0  0  0  0  0
   17.8348   -7.9960    0.0000 O   0  0  0  0  0  0  0  0  0  0  0  0
  1  3  2  0  0  0  0
  2  4  2  0  0  0  0
  3  5  1  0  0  0  0
  4  6  1  0  0  0  0
  5  6  2  0  0  0  0
  1  7  1  0  0  0  0
  1  2  1  0  0  0  0
  7  8  2  0  0  0  0
  2  9  1  0  0  0  0
  8 10  1  0  0  0  0
  9 10  2  0  0  0  0
  4 11  1  0  0  0  0
M  END
$$$$
