
  ACD/LABS06052618022D

  9  8  0  0  0  0  0  0  0  0  1 V2000
   20.0301   -9.4542    0.0000 C   0  0  0  0  0  0  0  0  0  0  0  0
   20.0301  -10.7842    0.0000 C   0  0  0  0  0  0  0  0  0  0  0  0
   18.8764  -11.4412    0.0000 C   0  0  0  0  0  0  0  0  0  0  0  0
   18.8764  -12.7712    0.0000 C   0  0  0  0  0  0  0  0  0  0  0  0
   17.7227  -13.4282    0.0000 C   0  0  0  0  0  0  0  0  0  0  0  0
   17.7227  -14.7582    0.0000 C   0  0  0  0  0  0  0  0  0  0  0  0
   16.5689  -15.4312    0.0000 C   0  0  0  0  0  0  0  0  0  0  0  0
   16.5689  -16.7612    0.0000 C   0  0  0  0  0  0  0  0  0  0  0  0
   21.1839   -8.7972    0.0000 O   0  0  0  0  0  0  0  0  0  0  0  0
  1  2  1  0  0  0  0
  2  3  1  0  0  0  0
  3  4  1  0  0  0  0
  4  5  1  0  0  0  0
  5  6  1  0  0  0  0
  6  7  1  0  0  0  0
  7  8  1  0  0  0  0
  1  9  1  0  0  0  0
M  END
$$$$
