
  ACD/LABS06052618322D

  6  5  0  0  0  0  0  0  0  0  1 V2000
   16.4936   -8.6089    0.0000 C   0  0  0  0  0  0  0  0  0  0  0  0
   17.6454   -7.9439    0.0000 C   0  0  0  0  0  0  0  0  0  0  0  0
   18.7972   -8.6089    0.0000 C   0  0  0  0  0  0  0  0  0  0  0  0
   19.9490   -7.9439    0.0000 C   0  0  0  0  0  0  0  0  0  0  0  0
   21.1009   -8.6089    0.0000 C   0  0  0  0  0  0  0  0  0  0  0  0
   22.2527   -7.9439    0.0000 O   0  0  0  0  0  0  0  0  0  0  0  0
  1  2  1  0  0  0  0
  2  3  1  0  0  0  0
  3  4  1  0  0  0  0
  4  5  1  0  0  0  0
  5  6  1  0  0  0  0
M  END
$$$$
