
  ACD/LABS06052620272D

  8  7  0  0  0  0  0  0  0  0  1 V2000
   17.1496   -7.5674    0.0000 C   0  0  0  0  0  0  0  0  0  0  0  0
   18.3014   -6.9024    0.0000 C   0  0  0  0  0  0  0  0  0  0  0  0
   19.4533   -7.5674    0.0000 C   0  0  0  0  0  0  0  0  0  0  0  0
   20.6051   -6.9024    0.0000 C   0  0  0  0  0  0  0  0  0  0  0  0
   21.7569   -7.5674    0.0000 C   0  0  0  0  0  0  0  0  0  0  0  0
   18.2995   -5.5764    0.0000 C   0  0  0  0  0  0  0  0  0  0  0  0
   18.2995   -8.2364    0.0000 C   0  0  0  0  0  0  0  0  0  0  0  0
   20.6070   -5.5764    0.0000 C   0  0  0  0  0  0  0  0  0  0  0  0
  1  2  1  0  0  0  0
  2  3  1  0  0  0  0
  3  4  1  0  0  0  0
  4  5  1  0  0  0  0
  2  6  1  0  0  0  0
  2  7  1  0  0  0  0
  4  8  1  0  0  0  0
M  END
$$$$
