
  ACD/LABS05262611372D

  6  5  0  0  0  0  0  0  0  0  1 V2000
   18.2143   -7.1628    0.0000 C   0  0  0  0  0  0  0  0  0  0  0  0
   19.3661   -6.4978    0.0000 C   0  0  0  0  0  0  0  0  0  0  0  0
   20.5179   -7.1628    0.0000 C   0  0  0  0  0  0  0  0  0  0  0  0
   21.1829   -6.0110    0.0000 C   0  0  0  0  0  0  0  0  0  0  0  0
   19.8529   -8.3146    0.0000 C   0  0  0  0  0  0  0  0  0  0  0  0
   21.6697   -7.8278    0.0000 C   0  0  0  0  0  0  0  0  0  0  0  0
  1  2  1  0  0  0  0
  2  3  1  0  0  0  0
  3  4  1  0  0  0  0
  3  5  1  0  0  0  0
  3  6  1  0  0  0  0
M  END
$$$$
