
  ACD/LABS05262611392D

  6  5  0  0  0  0  0  0  0  0  1 V2000
   18.2143   -6.8343    0.0000 C   0  0  0  0  0  0  0  0  0  0  0  0
   19.3661   -6.1693    0.0000 C   0  0  0  0  0  0  0  0  0  0  0  0
   20.5179   -6.8343    0.0000 C   0  0  0  0  0  0  0  0  0  0  0  0
   21.6697   -6.1693    0.0000 C   0  0  0  0  0  0  0  0  0  0  0  0
   20.5179   -8.1643    0.0000 C   0  0  0  0  0  0  0  0  0  0  0  0
   19.3661   -4.8393    0.0000 C   0  0  0  0  0  0  0  0  0  0  0  0
  1  2  1  0  0  0  0
  2  3  1  0  0  0  0
  3  4  1  0  0  0  0
  3  5  1  0  0  0  0
  2  6  1  0  0  0  0
M  END
$$$$
