
  ACD/LABS06052620292D

  9  9  0  0  0  0  0  0  0  0  1 V2000
   21.5025   -6.2734    0.0000 C   0  0  0  0  0  0  0  0  0  0  0  0
   21.5025   -7.6034    0.0000 C   0  0  0  0  0  0  0  0  0  0  0  0
   20.3505   -5.6084    0.0000 N   0  0  0  0  0  0  0  0  0  0  0  0
   20.3505   -8.2684    0.0000 C   0  0  0  0  0  0  0  0  0  0  0  0
   19.1988   -6.2734    0.0000 C   0  0  0  0  0  0  0  0  0  0  0  0
   19.1988   -7.6034    0.0000 C   0  0  0  0  0  0  0  0  0  0  0  0
   18.0431   -5.6084    0.0000 C   0  0  0  0  0  0  0  0  0  0  0  0
   20.3506   -9.5984    0.0000 C   0  0  0  0  0  0  0  0  0  0  0  0
   22.6581   -5.6245    0.0000 C   0  0  0  0  0  0  0  0  0  0  0  0
  1  2  1  0  0  0  0
  1  3  2  0  0  0  0
  2  4  2  0  0  0  0
  3  5  1  0  0  0  0
  4  6  1  0  0  0  0
  5  6  2  0  0  0  0
  5  7  1  0  0  0  0
  4  8  1  0  0  0  0
  1  9  1  0  0  0  0
M  END
$$$$
