
  ACD/LABS05292609342D

  8  8  0  0  0  0  0  0  0  0  1 V2000
   20.9576   -7.2189    0.0000 C   0  0  0  0  0  0  0  0  0  0  0  0
   20.9576   -8.5489    0.0000 C   0  0  0  0  0  0  0  0  0  0  0  0
   19.8057   -6.5539    0.0000 N   0  0  0  0  0  0  0  0  0  0  0  0
   19.8057   -9.2139    0.0000 C   0  0  0  0  0  0  0  0  0  0  0  0
   18.6539   -7.2189    0.0000 C   0  0  0  0  0  0  0  0  0  0  0  0
   18.6539   -8.5489    0.0000 C   0  0  0  0  0  0  0  0  0  0  0  0
   22.1133   -6.5699    0.0000 C   0  0  0  0  0  0  0  0  0  0  0  0
   19.8058  -10.5439    0.0000 C   0  0  0  0  0  0  0  0  0  0  0  0
  1  2  1  0  0  0  0
  1  3  2  0  0  0  0
  2  4  2  0  0  0  0
  3  5  1  0  0  0  0
  4  6  1  0  0  0  0
  5  6  2  0  0  0  0
  1  7  1  0  0  0  0
  4  8  1  0  0  0  0
M  END
$$$$
