
  ACD/LABS06052618112D

  7  6  0  0  0  0  0  0  0  0  1 V2000
   17.8156   -8.1763    0.0000 C   0  0  0  0  0  0  0  0  0  0  0  0
   18.9674   -7.5113    0.0000 C   0  0  0  0  0  0  0  0  0  0  0  0
   20.1192   -8.1763    0.0000 C   0  0  0  0  0  0  0  0  0  0  0  0
   21.2710   -7.5113    0.0000 C   0  0  0  0  0  0  0  0  0  0  0  0
   22.4228   -8.1763    0.0000 C   0  0  0  0  0  0  0  0  0  0  0  0
   18.9725   -6.1853    0.0000 O   0  0  0  0  0  0  0  0  0  0  0  0
   21.2640   -6.1853    0.0000 O   0  0  0  0  0  0  0  0  0  0  0  0
  1  2  1  0  0  0  0
  2  3  1  0  0  0  0
  3  4  1  0  0  0  0
  4  5  1  0  0  0  0
  2  6  2  0  0  0  0
  4  7  2  0  0  0  0
M  END
$$$$
