
  ACD/LABS05262611562D

  7  6  0  0  0  0  0  0  0  0  1 V2000
   16.5728   -7.5033    0.0000 C   0  0  0  0  0  0  0  0  0  0  0  0
   17.7246   -6.8383    0.0000 C   0  0  0  0  0  0  0  0  0  0  0  0
   18.8764   -7.5033    0.0000 C   0  0  0  0  0  0  0  0  0  0  0  0
   20.0282   -6.8383    0.0000 C   0  0  0  0  0  0  0  0  0  0  0  0
   21.1800   -7.5033    0.0000 C   0  0  0  0  0  0  0  0  0  0  0  0
   17.7227   -5.5123    0.0000 C   0  0  0  0  0  0  0  0  0  0  0  0
   20.0301   -5.5123    0.0000 C   0  0  0  0  0  0  0  0  0  0  0  0
  1  2  1  0  0  0  0
  2  3  1  0  0  0  0
  3  4  1  0  0  0  0
  4  5  1  0  0  0  0
  2  6  1  0  0  0  0
  4  7  1  0  0  0  0
M  END
$$$$
