
  ACD/LABS05262611482D

 10  9  0  0  0  0  0  0  0  0  1 V2000
   15.4209   -6.8383    0.0000 C   0  0  0  0  0  0  0  0  0  0  0  0
   16.5728   -7.5033    0.0000 C   0  0  0  0  0  0  0  0  0  0  0  0
   17.7246   -6.8383    0.0000 C   0  0  0  0  0  0  0  0  0  0  0  0
   18.8764   -7.5033    0.0000 C   0  0  0  0  0  0  0  0  0  0  0  0
   18.8764   -8.8333    0.0000 O   0  0  0  0  0  0  0  0  0  0  0  0
   20.0282   -6.8383    0.0000 C   0  0  0  0  0  0  0  0  0  0  0  0
   21.1800   -7.5033    0.0000 C   0  0  0  0  0  0  0  0  0  0  0  0
   22.3318   -6.8383    0.0000 C   0  0  0  0  0  0  0  0  0  0  0  0
   16.5728   -8.8333    0.0000 C   0  0  0  0  0  0  0  0  0  0  0  0
   21.1800   -8.8333    0.0000 C   0  0  0  0  0  0  0  0  0  0  0  0
  1  2  1  0  0  0  0
  2  3  1  0  0  0  0
  3  4  1  0  0  0  0
  4  5  2  0  0  0  0
  4  6  1  0  0  0  0
  6  7  1  0  0  0  0
  7  8  1  0  0  0  0
  2  9  1  0  0  0  0
  7 10  1  0  0  0  0
M  END
$$$$
