
  ACD/LABS05252610202D

  4  3  0  0  0  0  0  0  0  0  1 V2000
   17.0657   -6.7622    0.0000 C   0  0  0  0  0  0  0  0  0  0  0  0
   18.2194   -6.1052    0.0000 C   0  0  0  0  0  0  0  0  0  0  0  0
   19.3731   -6.7782    0.0000 C   0  0  0  0  0  0  0  0  0  0  0  0
   18.2194   -4.7752    0.0000 Br  0  0  0  0  0  0  0  0  0  0  0  0
  1  2  1  0  0  0  0
  2  3  1  0  0  0  0
  2  4  1  0  0  0  0
M  END
$$$$
