
  ACD/LABS05252611172D

  5  4  0  0  0  0  0  0  0  0  1 V2000
   19.1343   -6.5655    0.0000 C   0  0  0  0  0  0  0  0  0  0  0  0
   20.4643   -6.5658    0.0000 C   0  0  0  0  0  0  0  0  0  0  0  0
   21.1142   -7.7086    0.0000 C   0  0  0  0  0  0  0  0  0  0  0  0
   20.4541   -8.8521    0.0000 C   0  0  0  0  0  0  0  0  0  0  0  0
   22.4442   -7.7090    0.0000 O   0  0  0  0  0  0  0  0  0  0  0  0
  1  2  1  0  0  0  0
  2  3  1  0  0  0  0
  3  4  1  0  0  0  0
  3  5  1  0  0  0  0
M  END
$$$$
