
  ACD/LABS05252612302D

  4  3  0  0  0  0  0  0  0  0  1 V2000
   19.0110   -9.2119    0.0000 C   0  0  0  0  0  0  0  0  0  0  0  0
   20.1628   -8.5469    0.0000 C   0  0  0  0  0  0  0  0  0  0  0  0
   20.1628   -7.2169    0.0000 C   0  0  0  0  0  0  0  0  0  0  0  0
   21.3146   -9.2119    0.0000 Cl  0  0  0  0  0  0  0  0  0  0  0  0
  1  2  1  0  0  0  0
  2  3  2  0  0  0  0
  2  4  1  0  0  0  0
M  END
$$$$
