
  ACD/LABS06052617162D

  6  5  0  0  0  0  0  0  0  0  1 V2000
   17.2179   -6.4537    0.0000 O   0  0  0  0  0  0  0  0  0  0  0  0
   18.3697   -5.7887    0.0000 C   0  0  0  0  0  0  0  0  0  0  0  0
   19.5215   -6.4537    0.0000 C   0  0  0  0  0  0  0  0  0  0  0  0
   18.3636   -4.4547    0.0000 O   0  0  0  0  0  0  0  0  0  0  0  0
   20.6711   -5.7847    0.0000 C   0  0  0  0  0  0  0  0  0  0  0  0
   19.5174   -7.7877    0.0000 C   0  0  0  0  0  0  0  0  0  0  0  0
  1  2  1  0  0  0  0
  2  3  1  0  0  0  0
  2  4  2  0  0  0  0
  3  5  1  0  0  0  0
  3  6  1  0  0  0  0
M  END
$$$$
