
  ACD/LABS06052616572D

  5  4  0  0  0  0  0  0  0  0  1 V2000
   16.1843   -5.4421    0.0000 C   0  0  0  0  0  0  0  0  0  0  0  0
   16.8493   -6.5939    0.0000 C   0  0  0  0  0  0  0  0  0  0  0  0
   18.1793   -6.5939    0.0000 C   0  0  0  0  0  0  0  0  0  0  0  0
   18.8443   -5.4421    0.0000 C   0  0  0  0  0  0  0  0  0  0  0  0
   16.1843   -7.7457    0.0000 C   0  0  0  0  0  0  0  0  0  0  0  0
  1  2  2  0  0  0  0
  2  3  1  0  0  0  0
  3  4  2  0  0  0  0
  2  5  1  0  0  0  0
M  END
$$$$
