
  ACD/LABS06052616592D

  5  4  0  0  0  0  0  0  0  0  1 V2000
   16.0720   -7.4692    0.0000 C   0  0  0  0  0  0  0  0  0  0  0  0
   17.2238   -6.8042    0.0000 C   0  0  0  0  0  0  0  0  0  0  0  0
   18.3756   -7.4692    0.0000 C   0  0  0  0  0  0  0  0  0  0  0  0
   17.2238   -5.4742    0.0000 C   0  0  0  0  0  0  0  0  0  0  0  0
   18.3756   -8.7992    0.0000 C   0  0  0  0  0  0  0  0  0  0  0  0
  1  2  1  0  0  0  0
  2  3  2  0  0  0  0
  2  4  1  0  0  0  0
  3  5  1  0  0  0  0
M  END
$$$$
