
  ACD/LABS06052617202D

  5  4  0  0  0  0  0  0  0  0  1 V2000
   18.1904   -6.4577    0.0000 C   0  0  0  0  0  0  0  0  0  0  0  0
   19.5204   -6.4577    0.0000 C   0  0  0  0  0  0  0  0  0  0  0  0
   19.5204   -5.1277    0.0000 C   0  0  0  0  0  0  0  0  0  0  0  0
   19.5204   -7.7877    0.0000 C   0  0  0  0  0  0  0  0  0  0  0  0
   20.8504   -6.4577    0.0000 O   0  0  0  0  0  0  0  0  0  0  0  0
  1  2  1  0  0  0  0
  2  3  1  0  0  0  0
  2  4  1  0  0  0  0
  2  5  1  0  0  0  0
M  END
$$$$
