
  ACD/LABS06052617102D

  6  5  0  0  0  0  0  0  0  0  1 V2000
   14.9143   -6.4537    0.0000 C   0  0  0  0  0  0  0  0  0  0  0  0
   16.0661   -5.7887    0.0000 C   0  0  0  0  0  0  0  0  0  0  0  0
   17.2179   -6.4537    0.0000 C   0  0  0  0  0  0  0  0  0  0  0  0
   18.3697   -5.7887    0.0000 C   0  0  0  0  0  0  0  0  0  0  0  0
   19.5215   -6.4537    0.0000 C   0  0  0  0  0  0  0  0  0  0  0  0
   16.0661   -4.4587    0.0000 C   0  0  0  0  0  0  0  0  0  0  0  0
  1  2  1  0  0  0  0
  2  3  1  0  0  0  0
  3  4  1  0  0  0  0
  4  5  1  0  0  0  0
  2  6  1  0  0  0  0
M  END
$$$$
