
  ACD/LABS06052617072D

 11 12  0  0  0  0  0  0  0  0  1 V2000
   24.3067   -5.6966    0.0000 C   0  0  0  0  0  0  0  0  0  0  0  0
   24.3067   -7.0266    0.0000 C   0  0  0  0  0  0  0  0  0  0  0  0
   23.1548   -5.0316    0.0000 C   0  0  0  0  0  0  0  0  0  0  0  0
   23.1548   -7.6916    0.0000 C   0  0  0  0  0  0  0  0  0  0  0  0
   22.0030   -5.6966    0.0000 C   0  0  0  0  0  0  0  0  0  0  0  0
   22.0030   -7.0266    0.0000 C   0  0  0  0  0  0  0  0  0  0  0  0
   25.4584   -5.0316    0.0000 C   0  0  0  0  0  0  0  0  0  0  0  0
   26.6102   -5.6967    0.0000 C   0  0  0  0  0  0  0  0  0  0  0  0
   25.4584   -7.6915    0.0000 C   0  0  0  0  0  0  0  0  0  0  0  0
   26.6101   -7.0266    0.0000 C   0  0  0  0  0  0  0  0  0  0  0  0
   20.8474   -7.6916    0.0000 C   0  0  0  0  0  0  0  0  0  0  0  0
  1  3  2  0  0  0  0
  2  4  2  0  0  0  0
  3  5  1  0  0  0  0
  4  6  1  0  0  0  0
  5  6  2  0  0  0  0
  1  7  1  0  0  0  0
  1  2  1  0  0  0  0
  7  8  2  0  0  0  0
  2  9  1  0  0  0  0
  8 10  1  0  0  0  0
  9 10  2  0  0  0  0
  6 11  1  0  0  0  0
M  END
$$$$
