
  ACD/LABS06052617462D

  6  5  0  0  0  0  0  0  0  0  2 V2000
   21.7306   -6.4537    0.0000 N   0  3  0  0  0  0  0  0  0  0  0  0
   22.8824   -5.7887    0.0000 O   0  0  0  0  0  0  0  0  0  0  0  0
   20.5788   -5.7887    0.0000 O   0  5  0  0  0  0  0  0  0  0  0  0
   21.7306   -7.7837    0.0000 C   0  0  0  0  0  0  0  0  0  0  0  0
   22.8824   -8.4487    0.0000 C   0  0  0  0  0  0  0  0  0  0  0  0
   20.5749   -8.4607    0.0000 C   0  0  0  0  0  0  0  0  0  0  0  0
  1  2  2  0  0  0  0
  1  3  1  0  0  0  0
  4  5  1  0  0  0  0
  1  4  1  0  0  0  0
  4  6  1  0  0  0  0
M  CHG  2   1   1   3  -1
M  END
$$$$
