
  ACD/LABS06052618512D

  6  5  0  0  0  0  0  0  0  0  1 V2000
    9.0174   -5.5804    0.0000 C   0  0  0  0  0  0  0  0  0  0  0  0
   10.1692   -4.9154    0.0000 C   0  0  0  0  0  0  0  0  0  0  0  0
   11.3210   -5.5804    0.0000 C   0  0  0  0  0  0  0  0  0  0  0  0
   12.4728   -4.9154    0.0000 C   0  0  0  0  0  0  0  0  0  0  0  0
   13.6247   -5.5804    0.0000 C   0  0  0  0  0  0  0  0  0  0  0  0
   10.1692   -3.5854    0.0000 O   0  0  0  0  0  0  0  0  0  0  0  0
  1  2  1  0  0  0  0
  2  3  1  0  0  0  0
  3  4  1  0  0  0  0
  4  5  1  0  0  0  0
  2  6  1  0  0  0  0
M  END
$$$$
