
  ACD/LABS06052619212D

  4  3  0  0  0  0  0  0  0  0  1 V2000
   13.7737   -7.3911    0.0000 C   0  0  0  0  0  0  0  0  0  0  0  0
   14.9255   -8.0561    0.0000 C   0  0  0  0  0  0  0  0  0  0  0  0
   14.9255   -9.3861    0.0000 C   0  0  0  0  0  0  0  0  0  0  0  0
   16.0722   -7.4031    0.0000 O   0  0  0  0  0  0  0  0  0  0  0  0
  1  2  1  0  0  0  0
  2  3  1  0  0  0  0
  2  4  1  0  0  0  0
M  END
$$$$
