
  ACD/LABS05252612312D

  4  3  0  0  0  0  0  0  0  0  1 V2000
   19.0078   -9.2129    0.0000 C   0  0  0  0  0  0  0  0  0  0  0  0
   20.1596   -8.5479    0.0000 C   0  0  0  0  0  0  0  0  0  0  0  0
   20.1596   -7.2179    0.0000 C   0  0  0  0  0  0  0  0  0  0  0  0
   19.0078  -10.5429    0.0000 Cl  0  0  0  0  0  0  0  0  0  0  0  0
  1  2  1  0  0  0  0
  2  3  2  0  0  0  0
  1  4  1  0  0  0  0
M  END
$$$$
