
  ACD/LABS05292610262D

  8  7  0  0  0  0  0  0  0  0  1 V2000
   14.3336   -6.0720    0.0000 C   0  0  0  0  0  0  0  0  0  0  0  0
   15.6636   -6.0720    0.0000 C   0  0  0  0  0  0  0  0  0  0  0  0
   16.3286   -7.2238    0.0000 C   0  0  0  0  0  0  0  0  0  0  0  0
   17.6586   -7.2238    0.0000 C   0  0  0  0  0  0  0  0  0  0  0  0
   18.3236   -8.3756    0.0000 C   0  0  0  0  0  0  0  0  0  0  0  0
   19.6536   -8.3756    0.0000 C   0  0  0  0  0  0  0  0  0  0  0  0
   15.6636   -8.3756    0.0000 C   0  0  0  0  0  0  0  0  0  0  0  0
   14.3336   -8.3756    0.0000 C   0  0  0  0  0  0  0  0  0  0  0  0
  1  2  1  0  0  0  0
  2  3  1  0  0  0  0
  3  4  1  0  0  0  0
  4  5  1  0  0  0  0
  5  6  1  0  0  0  0
  3  7  1  0  0  0  0
  7  8  1  0  0  0  0
M  END
$$$$
