
  ACD/LABS05292610312D

  7  6  0  0  0  0  0  0  0  0  1 V2000
   15.5953   -7.1467    0.0000 C   0  0  0  0  0  0  0  0  0  0  0  0
   16.7471   -6.4817    0.0000 C   0  0  0  0  0  0  0  0  0  0  0  0
   17.8989   -7.1467    0.0000 C   0  0  0  0  0  0  0  0  0  0  0  0
   19.0507   -6.4817    0.0000 C   0  0  0  0  0  0  0  0  0  0  0  0
   20.2026   -7.1467    0.0000 C   0  0  0  0  0  0  0  0  0  0  0  0
   17.8989   -8.4767    0.0000 C   0  0  0  0  0  0  0  0  0  0  0  0
   19.0507   -9.1418    0.0000 C   0  0  0  0  0  0  0  0  0  0  0  0
  1  2  1  0  0  0  0
  2  3  1  0  0  0  0
  3  4  1  0  0  0  0
  4  5  1  0  0  0  0
  3  6  1  0  0  0  0
  6  7  1  0  0  0  0
M  END
$$$$
