
  ACD/LABS06052616582D

  7  6  0  0  0  0  0  0  0  0  1 V2000
   16.0680   -7.4712    0.0000 C   0  0  0  0  0  0  0  0  0  0  0  0
   17.2198   -6.8062    0.0000 C   0  0  0  0  0  0  0  0  0  0  0  0
   18.3716   -7.4712    0.0000 C   0  0  0  0  0  0  0  0  0  0  0  0
   19.5234   -6.8062    0.0000 C   0  0  0  0  0  0  0  0  0  0  0  0
   17.2198   -5.4762    0.0000 C   0  0  0  0  0  0  0  0  0  0  0  0
   20.6753   -7.4712    0.0000 O   0  0  0  0  0  0  0  0  0  0  0  0
   19.5234   -5.4762    0.0000 O   0  0  0  0  0  0  0  0  0  0  0  0
  1  2  1  0  0  0  0
  2  3  1  0  0  0  0
  3  4  1  0  0  0  0
  2  5  1  0  0  0  0
  4  6  2  0  0  0  0
  4  7  1  0  0  0  0
M  END
$$$$
