
  ACD/LABS05252610282D

  8  8  0  0  0  0  0  0  0  0  1 V2000
   25.5886   -7.7797    0.0000 C   0  0  0  0  0  0  0  0  0  0  0  0
   25.5886   -9.1097    0.0000 C   0  0  0  0  0  0  0  0  0  0  0  0
   24.4367   -7.1147    0.0000 C   0  0  0  0  0  0  0  0  0  0  0  0
   24.4367   -9.7747    0.0000 C   0  0  0  0  0  0  0  0  0  0  0  0
   23.2849   -7.7797    0.0000 C   0  0  0  0  0  0  0  0  0  0  0  0
   23.2849   -9.1097    0.0000 C   0  0  0  0  0  0  0  0  0  0  0  0
   24.4368   -5.7847    0.0000 C   0  0  0  0  0  0  0  0  0  0  0  0
   24.4368  -11.1047    0.0000 Br  0  0  0  0  0  0  0  0  0  0  0  0
  1  2  1  0  0  0  0
  1  3  2  0  0  0  0
  2  4  2  0  0  0  0
  3  5  1  0  0  0  0
  4  6  1  0  0  0  0
  5  6  2  0  0  0  0
  3  7  1  0  0  0  0
  4  8  1  0  0  0  0
M  END
$$$$
