
  ACD/LABS05252612292D

  4  3  0  0  0  0  0  0  0  0  1 V2000
   19.0136   -9.2099    0.0000 C   0  0  0  0  0  0  0  0  0  0  0  0
   19.0136  -10.5399    0.0000 Cl  0  0  0  0  0  0  0  0  0  0  0  0
   20.1654   -8.5449    0.0000 C   0  0  0  0  0  0  0  0  0  0  0  0
   20.1654   -7.2149    0.0000 C   0  0  0  0  0  0  0  0  0  0  0  0
  1  2  1  0  0  0  0
  1  3  1  0  0  0  0
  3  4  1  0  0  0  0
M  END
$$$$
