
  ACD/LABS05252612012D

  8  8  0  0  0  0  0  0  0  0  1 V2000
   20.3195   -7.3310    0.0000 C   0  0  0  0  0  0  0  0  0  0  0  0
   20.3195   -8.6610    0.0000 C   0  0  0  0  0  0  0  0  0  0  0  0
   19.1677   -6.6660    0.0000 C   0  0  0  0  0  0  0  0  0  0  0  0
   19.1677   -9.3260    0.0000 C   0  0  0  0  0  0  0  0  0  0  0  0
   18.0159   -7.3310    0.0000 C   0  0  0  0  0  0  0  0  0  0  0  0
   18.0159   -8.6610    0.0000 C   0  0  0  0  0  0  0  0  0  0  0  0
   19.1677   -5.3360    0.0000 N   0  0  0  0  0  0  0  0  0  0  0  0
   19.1648  -10.6560    0.0000 Cl  0  0  0  0  0  0  0  0  0  0  0  0
  1  2  1  0  0  0  0
  1  3  2  0  0  0  0
  2  4  2  0  0  0  0
  3  5  1  0  0  0  0
  4  6  1  0  0  0  0
  5  6  2  0  0  0  0
  3  7  1  0  0  0  0
  4  8  1  0  0  0  0
M  END
$$$$
