
  ACD/LABS05252612362D

  8  8  0  0  0  0  0  0  0  0  1 V2000
   20.2544   -7.3310    0.0000 C   0  0  0  0  0  0  0  0  0  0  0  0
   20.2544   -8.6610    0.0000 C   0  0  0  0  0  0  0  0  0  0  0  0
   19.1026   -6.6660    0.0000 C   0  0  0  0  0  0  0  0  0  0  0  0
   19.1026   -9.3260    0.0000 C   0  0  0  0  0  0  0  0  0  0  0  0
   17.9508   -7.3310    0.0000 C   0  0  0  0  0  0  0  0  0  0  0  0
   17.9508   -8.6610    0.0000 C   0  0  0  0  0  0  0  0  0  0  0  0
   21.4063   -6.6660    0.0000 Cl  0  0  0  0  0  0  0  0  0  0  0  0
   16.7933   -9.3260    0.0000 C   0  0  0  0  0  0  0  0  0  0  0  0
  1  2  1  0  0  0  0
  1  3  2  0  0  0  0
  2  4  2  0  0  0  0
  3  5  1  0  0  0  0
  4  6  1  0  0  0  0
  5  6  2  0  0  0  0
  1  7  1  0  0  0  0
  6  8  1  0  0  0  0
M  END
$$$$
