
  ACD/LABS06052616512D

  8  8  0  0  0  0  0  0  0  0  1 V2000
   21.6146   -7.4432    0.0000 C   0  0  0  0  0  0  0  0  0  0  0  0
   21.6146   -8.7732    0.0000 C   0  0  0  0  0  0  0  0  0  0  0  0
   20.4627   -6.7782    0.0000 C   0  0  0  0  0  0  0  0  0  0  0  0
   20.4627   -9.4382    0.0000 C   0  0  0  0  0  0  0  0  0  0  0  0
   19.3109   -7.4432    0.0000 C   0  0  0  0  0  0  0  0  0  0  0  0
   19.3109   -8.7732    0.0000 C   0  0  0  0  0  0  0  0  0  0  0  0
   20.4628   -5.4482    0.0000 N   0  0  0  0  0  0  0  0  0  0  0  0
   20.4627  -10.7682    0.0000 C   0  0  0  0  0  0  0  0  0  0  0  0
  1  2  1  0  0  0  0
  1  3  2  0  0  0  0
  2  4  2  0  0  0  0
  3  5  1  0  0  0  0
  4  6  1  0  0  0  0
  5  6  2  0  0  0  0
  3  7  1  0  0  0  0
  4  8  1  0  0  0  0
M  END
$$$$
