
  ACD/LABS06052617222D

  7  7  0  0  0  0  0  0  0  0  1 V2000
   23.8420   -7.7637    0.0000 C   0  0  0  0  0  0  0  0  0  0  0  0
   23.8420   -9.0937    0.0000 C   0  0  0  0  0  0  0  0  0  0  0  0
   22.6901   -7.0987    0.0000 N   0  0  0  0  0  0  0  0  0  0  0  0
   22.6901   -9.7587    0.0000 C   0  0  0  0  0  0  0  0  0  0  0  0
   21.5383   -7.7637    0.0000 C   0  0  0  0  0  0  0  0  0  0  0  0
   21.5383   -9.0937    0.0000 C   0  0  0  0  0  0  0  0  0  0  0  0
   22.6901  -11.0887    0.0000 C   0  0  0  0  0  0  0  0  0  0  0  0
  1  2  1  0  0  0  0
  1  3  2  0  0  0  0
  2  4  2  0  0  0  0
  3  5  1  0  0  0  0
  4  6  1  0  0  0  0
  5  6  2  0  0  0  0
  4  7  1  0  0  0  0
M  END
$$$$
