
  ACD/LABS06052617042D

  8  7  0  0  0  0  0  0  0  0  1 V2000
   15.7655   -6.7341    0.0000 C   0  0  0  0  0  0  0  0  0  0  0  0
   16.9173   -6.0691    0.0000 C   0  0  0  0  0  0  0  0  0  0  0  0
   18.0691   -6.7341    0.0000 C   0  0  0  0  0  0  0  0  0  0  0  0
   19.2209   -6.0691    0.0000 C   0  0  0  0  0  0  0  0  0  0  0  0
   20.3727   -6.7341    0.0000 C   0  0  0  0  0  0  0  0  0  0  0  0
   21.5245   -6.0691    0.0000 C   0  0  0  0  0  0  0  0  0  0  0  0
   22.6764   -6.7341    0.0000 C   0  0  0  0  0  0  0  0  0  0  0  0
   19.2209   -4.7391    0.0000 C   0  0  0  0  0  0  0  0  0  0  0  0
  1  2  1  0  0  0  0
  2  3  1  0  0  0  0
  3  4  1  0  0  0  0
  4  5  1  0  0  0  0
  5  6  1  0  0  0  0
  6  7  1  0  0  0  0
  4  8  1  0  0  0  0
M  END
$$$$
