
  ACD/LABS06052617362D

 10 10  0  0  0  0  0  0  0  0  2 V2000
   22.8824   -8.4487    0.0000 C   0  0  0  0  0  0  0  0  0  0  0  0
   22.8824   -9.7787    0.0000 C   0  0  0  0  0  0  0  0  0  0  0  0
   21.7306   -7.7837    0.0000 C   0  0  0  0  0  0  0  0  0  0  0  0
   21.7306  -10.4437    0.0000 C   0  0  0  0  0  0  0  0  0  0  0  0
   20.5788   -8.4487    0.0000 C   0  0  0  0  0  0  0  0  0  0  0  0
   20.5788   -9.7787    0.0000 C   0  0  0  0  0  0  0  0  0  0  0  0
   21.7306   -6.4537    0.0000 N   0  3  0  0  0  0  0  0  0  0  0  0
   22.8824   -5.7887    0.0000 O   0  0  0  0  0  0  0  0  0  0  0  0
   20.5788   -5.7887    0.0000 O   0  5  0  0  0  0  0  0  0  0  0  0
   21.7287  -11.7777    0.0000 N   0  0  0  0  0  0  0  0  0  0  0  0
  1  2  1  0  0  0  0
  1  3  2  0  0  0  0
  2  4  2  0  0  0  0
  3  5  1  0  0  0  0
  4  6  1  0  0  0  0
  5  6  2  0  0  0  0
  3  7  1  0  0  0  0
  7  8  2  0  0  0  0
  7  9  1  0  0  0  0
  4 10  1  0  0  0  0
M  CHG  2   7   1   9  -1
M  END
$$$$
