
  ACD/LABS05252611402D

 11 11  0  0  0  0  0  0  0  0  1 V2000
   20.9256   -4.8633    0.0000 C   0  0  0  0  0  0  0  0  0  0  0  0
   20.9256   -6.1933    0.0000 C   0  0  0  0  0  0  0  0  0  0  0  0
   19.7737   -4.1983    0.0000 C   0  0  0  0  0  0  0  0  0  0  0  0
   19.7737   -6.8583    0.0000 C   0  0  0  0  0  0  0  0  0  0  0  0
   18.6219   -4.8633    0.0000 C   0  0  0  0  0  0  0  0  0  0  0  0
   18.6219   -6.1933    0.0000 C   0  0  0  0  0  0  0  0  0  0  0  0
   19.7737   -2.8683    0.0000 O   0  0  0  0  0  0  0  0  0  0  0  0
   19.7737   -8.1883    0.0000 C   0  0  0  0  0  0  0  0  0  0  0  0
   21.1037   -8.1883    0.0000 C   0  0  0  0  0  0  0  0  0  0  0  0
   18.4437   -8.1883    0.0000 C   0  0  0  0  0  0  0  0  0  0  0  0
   19.7737   -9.5183    0.0000 C   0  0  0  0  0  0  0  0  0  0  0  0
  1  2  1  0  0  0  0
  1  3  2  0  0  0  0
  2  4  2  0  0  0  0
  3  5  1  0  0  0  0
  4  6  1  0  0  0  0
  5  6  2  0  0  0  0
  3  7  1  0  0  0  0
  4  8  1  0  0  0  0
  8  9  1  0  0  0  0
  8 10  1  0  0  0  0
  8 11  1  0  0  0  0
M  END
$$$$
