
  ACD/LABS05232616012D

 17 20  0  0  0  0  0  0  0  0  2 V2000
   21.8037   -8.0481    0.0000 B   0  5  0  0  0  0  0  0  0  0  0  0
   19.7570   -7.3831    0.0000 C   0  0  0  0  0  0  0  0  0  0  0  0
   19.7570   -8.7131    0.0000 C   0  0  0  0  0  0  0  0  0  0  0  0
   18.6052   -6.7181    0.0000 C   0  0  0  0  0  0  0  0  0  0  0  0
   18.6052   -9.3781    0.0000 C   0  0  0  0  0  0  0  0  0  0  0  0
   17.4534   -7.3831    0.0000 C   0  0  0  0  0  0  0  0  0  0  0  0
   17.4534   -8.7131    0.0000 C   0  0  0  0  0  0  0  0  0  0  0  0
   21.0220   -6.9721    0.0000 O   0  0  0  0  0  0  0  0  0  0  0  0
   21.0220   -9.1241    0.0000 O   0  0  0  0  0  0  0  0  0  0  0  0
   23.6343   -7.3831    0.0000 C   0  0  0  0  0  0  0  0  0  0  0  0
   23.6343   -8.7131    0.0000 C   0  0  0  0  0  0  0  0  0  0  0  0
   24.7861   -6.7181    0.0000 C   0  0  0  0  0  0  0  0  0  0  0  0
   24.7861   -9.3781    0.0000 C   0  0  0  0  0  0  0  0  0  0  0  0
   25.9379   -7.3831    0.0000 C   0  0  0  0  0  0  0  0  0  0  0  0
   25.9379   -8.7131    0.0000 C   0  0  0  0  0  0  0  0  0  0  0  0
   22.3694   -6.9721    0.0000 O   0  0  0  0  0  0  0  0  0  0  0  0
   22.3694   -9.1241    0.0000 O   0  0  0  0  0  0  0  0  0  0  0  0
  2  3  1  0  0  0  0
  2  4  2  0  0  0  0
  3  5  2  0  0  0  0
  4  6  1  0  0  0  0
  5  7  1  0  0  0  0
  6  7  2  0  0  0  0
  2  8  1  0  0  0  0
  3  9  1  0  0  0  0
  1  8  1  0  0  0  0
  1  9  1  0  0  0  0
 10 11  1  0  0  0  0
 10 12  2  0  0  0  0
 11 13  2  0  0  0  0
 12 14  1  0  0  0  0
 13 15  1  0  0  0  0
 14 15  2  0  0  0  0
 10 16  1  0  0  0  0
 11 17  1  0  0  0  0
  1 16  1  0  0  0  0
  1 17  1  0  0  0  0
M  CHG  1   1  -1
M  END
$$$$

  ACD/LABS05232616012D

  1  0  0  0  0  0  0  0  0  0  2 V2000
   21.7928   -4.6951    0.0000 K   0  3  0  0  0  0  0  0  0  0  0  0
M  CHG  1   1   1
M  END
$$$$
