
  ACD/LABS05232615592D

  8  8  0  0  0  0  0  0  0  0  2 V2000
   18.6662   -7.4272    0.0000 C   0  0  0  0  0  0  0  0  0  0  0  0
   18.6662   -8.7572    0.0000 C   0  0  0  0  0  0  0  0  0  0  0  0
   17.5143   -6.7622    0.0000 C   0  0  0  0  0  0  0  0  0  0  0  0
   17.5143   -9.4222    0.0000 C   0  0  0  0  0  0  0  0  0  0  0  0
   16.3625   -7.4272    0.0000 C   0  0  0  0  0  0  0  0  0  0  0  0
   16.3625   -8.7572    0.0000 C   0  0  0  0  0  0  0  0  0  0  0  0
   19.8218   -6.7622    0.0000 O   0  5  0  0  0  0  0  0  0  0  0  0
   19.8218   -9.4222    0.0000 O   0  5  0  0  0  0  0  0  0  0  0  0
  1  2  1  0  0  0  0
  1  3  2  0  0  0  0
  2  4  2  0  0  0  0
  3  5  1  0  0  0  0
  4  6  1  0  0  0  0
  5  6  2  0  0  0  0
  1  7  1  0  0  0  0
  2  8  1  0  0  0  0
M  CHG  2   7  -1   8  -1
M  END
$$$$

  ACD/LABS05232615592D

  8  8  0  0  0  0  0  0  0  0  2 V2000
   24.7252   -8.6690    0.0000 C   0  0  0  0  0  0  0  0  0  0  0  0
   24.7252   -7.3390    0.0000 C   0  0  0  0  0  0  0  0  0  0  0  0
   25.8770   -9.3340    0.0000 C   0  0  0  0  0  0  0  0  0  0  0  0
   25.8770   -6.6740    0.0000 C   0  0  0  0  0  0  0  0  0  0  0  0
   27.0288   -8.6690    0.0000 C   0  0  0  0  0  0  0  0  0  0  0  0
   27.0288   -7.3390    0.0000 C   0  0  0  0  0  0  0  0  0  0  0  0
   23.5734   -9.3340    0.0000 O   0  5  0  0  0  0  0  0  0  0  0  0
   23.5734   -6.6740    0.0000 O   0  5  0  0  0  0  0  0  0  0  0  0
  1  2  1  0  0  0  0
  1  3  2  0  0  0  0
  2  4  2  0  0  0  0
  3  5  1  0  0  0  0
  4  6  1  0  0  0  0
  5  6  2  0  0  0  0
  1  7  1  0  0  0  0
  2  8  1  0  0  0  0
M  CHG  2   7  -1   8  -1
M  END
$$$$

  ACD/LABS05232615592D

  1  0  0  0  0  0  0  0  0  0  2 V2000
   21.9690   -7.8999    0.0000 B   0  1  0  0  0  0  0  0  0  0  0  0
M  CHG  1   1   3
M  END
$$$$

  ACD/LABS05232615592D

  1  0  0  0  0  0  0  0  0  0  2 V2000
   21.7928   -4.6951    0.0000 K   0  3  0  0  0  0  0  0  0  0  0  0
M  CHG  1   1   1
M  END
$$$$
