
  ACD/LABS05232616062D

  5  4  0  0  0  0  0  0  0  0  2 V2000
   21.7928   -4.4146    0.0000 N   0  3  0  0  0  0  0  0  0  0  0  0
   21.7928   -2.9725    0.0000 H   0  0  0  0  0  0  0  0  0  0  0  0
   23.2349   -4.4146    0.0000 H   0  0  0  0  0  0  0  0  0  0  0  0
   20.3506   -4.4146    0.0000 H   0  0  0  0  0  0  0  0  0  0  0  0
   21.7928   -5.8568    0.0000 H   0  0  0  0  0  0  0  0  0  0  0  0
  1  2  1  0  0  0  0
  1  3  1  0  0  0  0
  1  4  1  0  0  0  0
  1  5  1  0  0  0  0
M  CHG  1   1   1
M  END
$$$$

  ACD/LABS05232616062D

  8  8  0  0  0  0  0  0  0  0  2 V2000
   19.8136   -7.3831    0.0000 C   0  0  0  0  0  0  0  0  0  0  0  0
   19.8136   -8.7131    0.0000 C   0  0  0  0  0  0  0  0  0  0  0  0
   18.6618   -6.7181    0.0000 C   0  0  0  0  0  0  0  0  0  0  0  0
   18.6618   -9.3781    0.0000 C   0  0  0  0  0  0  0  0  0  0  0  0
   17.5100   -7.3831    0.0000 C   0  0  0  0  0  0  0  0  0  0  0  0
   17.5100   -8.7131    0.0000 C   0  0  0  0  0  0  0  0  0  0  0  0
   20.9654   -6.7181    0.0000 O   0  5  0  0  0  0  0  0  0  0  0  0
   20.9654   -9.3781    0.0000 O   0  5  0  0  0  0  0  0  0  0  0  0
  1  2  1  0  0  0  0
  1  3  2  0  0  0  0
  2  4  2  0  0  0  0
  3  5  1  0  0  0  0
  4  6  1  0  0  0  0
  5  6  2  0  0  0  0
  1  7  1  0  0  0  0
  2  8  1  0  0  0  0
M  CHG  2   7  -1   8  -1
M  END
$$$$

  ACD/LABS05232616062D

  8  8  0  0  0  0  0  0  0  0  2 V2000
   23.4887   -8.6240    0.0000 C   0  0  0  0  0  0  0  0  0  0  0  0
   24.1537   -7.4722    0.0000 C   0  0  0  0  0  0  0  0  0  0  0  0
   24.1537   -9.7758    0.0000 C   0  0  0  0  0  0  0  0  0  0  0  0
   25.4837   -7.4722    0.0000 C   0  0  0  0  0  0  0  0  0  0  0  0
   25.4837   -9.7758    0.0000 C   0  0  0  0  0  0  0  0  0  0  0  0
   26.1487   -8.6240    0.0000 C   0  0  0  0  0  0  0  0  0  0  0  0
   22.1587   -8.6240    0.0000 O   0  5  0  0  0  0  0  0  0  0  0  0
   23.4887   -6.3204    0.0000 O   0  5  0  0  0  0  0  0  0  0  0  0
  1  2  1  0  0  0  0
  1  3  2  0  0  0  0
  2  4  2  0  0  0  0
  3  5  1  0  0  0  0
  4  6  1  0  0  0  0
  5  6  2  0  0  0  0
  1  7  1  0  0  0  0
  2  8  1  0  0  0  0
M  CHG  2   7  -1   8  -1
M  END
$$$$

  ACD/LABS05232616062D

  1  0  0  0  0  0  0  0  0  0  2 V2000
   21.6806   -7.9159    0.0000 B   0  1  0  0  0  0  0  0  0  0  0  0
M  CHG  1   1   3
M  END
$$$$
