
  ACD/LABS05232616262D

 20 19  0  0  0  0  0  0  0  0  1 V2000
   19.9682   -9.4422    0.0000 B   0  0  0  0  0  0  0  0  0  0  0  0
   20.9257   -8.8894    0.0000 Cl  0  0  0  0  0  0  0  0  0  0  0  0
   19.0106   -8.8894    0.0000 N   0  0  0  0  0  0  0  0  0  0  0  0
   19.9682  -10.5479    0.0000 N   0  0  0  0  0  0  0  0  0  0  0  0
   19.0106   -7.7837    0.0000 C   0  0  0  0  0  0  0  0  0  0  0  0
   18.0531   -9.4422    0.0000 C   0  0  0  0  0  0  0  0  0  0  0  0
   20.9257  -11.1007    0.0000 C   0  0  0  0  0  0  0  0  0  0  0  0
   19.0106  -11.1007    0.0000 C   0  0  0  0  0  0  0  0  0  0  0  0
   19.9682   -7.2309    0.0000 C   0  0  0  0  0  0  0  0  0  0  0  0
   17.0956   -8.8894    0.0000 C   0  0  0  0  0  0  0  0  0  0  0  0
   19.0106  -12.2064    0.0000 C   0  0  0  0  0  0  0  0  0  0  0  0
   20.9257  -12.2064    0.0000 C   0  0  0  0  0  0  0  0  0  0  0  0
   19.9682   -6.1252    0.0000 C   0  0  0  0  0  0  0  0  0  0  0  0
   20.9257   -5.5724    0.0000 C   0  0  0  0  0  0  0  0  0  0  0  0
   16.1380   -9.4422    0.0000 C   0  0  0  0  0  0  0  0  0  0  0  0
   15.1805   -8.8894    0.0000 C   0  0  0  0  0  0  0  0  0  0  0  0
   21.8832  -12.7592    0.0000 C   0  0  0  0  0  0  0  0  0  0  0  0
   21.8832  -13.8649    0.0000 C   0  0  0  0  0  0  0  0  0  0  0  0
   18.0531  -12.7592    0.0000 C   0  0  0  0  0  0  0  0  0  0  0  0
   18.0531  -13.8649    0.0000 C   0  0  0  0  0  0  0  0  0  0  0  0
  1  2  1  0  0  0  0
  1  3  1  0  0  0  0
  1  4  1  0  0  0  0
  3  5  1  0  0  0  0
  3  6  1  0  0  0  0
  4  7  1  0  0  0  0
  4  8  1  0  0  0  0
  5  9  1  0  0  0  0
  6 10  1  0  0  0  0
  8 11  1  0  0  0  0
  7 12  1  0  0  0  0
  9 13  1  0  0  0  0
 13 14  1  0  0  0  0
 10 15  1  0  0  0  0
 15 16  1  0  0  0  0
 12 17  1  0  0  0  0
 17 18  1  0  0  0  0
 11 19  1  0  0  0  0
 19 20  1  0  0  0  0
M  END
$$$$
