
  ACD/LABS05232612132D

  1  0  0  0  0  0  0  0  0  0  2 V2000
   20.4147   -8.1723    0.0000 B   0  1  0  0  0  0  0  0  0  0  0  0
M  CHG  1   1   3
M  END
$$$$

  ACD/LABS05232612132D

  1  0  0  0  0  0  0  0  0  0  2 V2000
   17.5304   -7.3711    0.0000 Br  0  5  0  0  0  0  0  0  0  0  0  0
M  CHG  1   1  -1
M  END
$$$$

  ACD/LABS05232612132D

  1  0  0  0  0  0  0  0  0  0  2 V2000
   20.7192   -6.2334    0.0000 Br  0  5  0  0  0  0  0  0  0  0  0  0
M  CHG  1   1  -1
M  END
$$$$

  ACD/LABS05232612132D

  1  0  0  0  0  0  0  0  0  0  2 V2000
   20.9435  -10.1433    0.0000 Br  0  5  0  0  0  0  0  0  0  0  0  0
M  CHG  1   1  -1
M  END
$$$$
