
  ACD/LABS05232612252D

  1  0  0  0  0  0  0  0  0  0  2 V2000
   21.2960   -7.4512    0.0000 B   0  1  0  0  0  0  0  0  0  0  0  0
M  CHG  1   1   3
M  END
$$$$

  ACD/LABS05232612252D

  1  0  0  0  0  0  0  0  0  0  2 V2000
   21.6486   -4.9835    0.0000 O   0  5  0  0  0  0  0  0  0  0  0  0
M  CHG  1   1  -1
M  END
$$$$

  ACD/LABS05232612252D

  1  0  0  0  0  0  0  0  0  0  2 V2000
   24.7733   -7.1147    0.0000 O   0  5  0  0  0  0  0  0  0  0  0  0
M  CHG  1   1  -1
M  END
$$$$

  ACD/LABS05232612252D

  1  0  0  0  0  0  0  0  0  0  2 V2000
   18.3316   -7.0506    0.0000 O   0  5  0  0  0  0  0  0  0  0  0  0
M  CHG  1   1  -1
M  END
$$$$
