
  ACD/LABS05232614262D

  2  1  0  0  0  0  0  0  0  0  2 V2000
   22.3055  -10.0792    0.0000 O   0  5  0  0  0  0  0  0  0  0  0  0
   22.7702  -11.1047    0.0000 C   0  0  0  0  0  0  0  0  0  0  0  0
  1  2  1  0  0  0  0
M  CHG  1   1  -1
M  END
$$$$

  ACD/LABS05232614262D

  2  1  0  0  0  0  0  0  0  0  2 V2000
   20.4948   -7.6595    0.0000 O   0  5  0  0  0  0  0  0  0  0  0  0
   22.5459   -7.0987    0.0000 C   0  0  0  0  0  0  0  0  0  0  0  0
  1  2  1  0  0  0  0
M  CHG  1   1  -1
M  END
$$$$

  ACD/LABS05232614262D

  2  1  0  0  0  0  0  0  0  0  2 V2000
   19.0527  -10.2875    0.0000 O   0  5  0  0  0  0  0  0  0  0  0  0
   19.2129  -11.3771    0.0000 C   0  0  0  0  0  0  0  0  0  0  0  0
  1  2  1  0  0  0  0
M  CHG  1   1  -1
M  END
$$$$

  ACD/LABS05232614262D

  1  0  0  0  0  0  0  0  0  0  2 V2000
   20.7352   -9.1017    0.0000 B   0  1  0  0  0  0  0  0  0  0  0  0
M  CHG  1   1   3
M  END
$$$$
