
  ACD/LABS05232610262D

  1  0  0  0  0  0  0  0  0  0  2 V2000
   20.4948   -7.0346    0.0000 Be  0  2  0  0  0  0  0  0  0  0  0  0
M  CHG  1   1   2
M  END
$$$$

  ACD/LABS05232610262D

  4  3  0  0  0  0  0  0  0  0  2 V2000
   16.8734   -8.4607    0.0000 C   0  0  0  0  0  0  0  0  0  0  0  0
   18.2034   -8.4607    0.0000 C   0  0  0  0  0  0  0  0  0  0  0  0
   18.8764   -7.3070    0.0000 O   0  0  0  0  0  0  0  0  0  0  0  0
   18.8604   -9.6145    0.0000 O   0  5  0  0  0  0  0  0  0  0  0  0
  1  2  1  0  0  0  0
  2  3  2  0  0  0  0
  2  4  1  0  0  0  0
M  CHG  1   4  -1
M  END
$$$$

  ACD/LABS05232610262D

  1  0  0  0  0  0  0  0  0  0  2 V2000
   20.7031  -10.0792    0.0000 Be  0  2  0  0  0  0  0  0  0  0  0  0
M  CHG  1   1   2
M  END
$$$$

  ACD/LABS05232610262D

  1  0  0  0  0  0  0  0  0  0  2 V2000
   25.8789  -10.0792    0.0000 Be  0  2  0  0  0  0  0  0  0  0  0  0
M  CHG  1   1   2
M  END
$$$$

  ACD/LABS05232610262D

  1  0  0  0  0  0  0  0  0  0  2 V2000
   25.9110   -6.7461    0.0000 Be  0  2  0  0  0  0  0  0  0  0  0  0
M  CHG  1   1   2
M  END
$$$$

  ACD/LABS05232610262D

  1  0  0  0  0  0  0  0  0  0  2 V2000
   23.4112   -8.3165    0.0000 O   0  6  0  0  0  0  0  0  0  0  0  0
M  CHG  1   1  -2
M  END
$$$$

  ACD/LABS05232610262D

  4  3  0  0  0  0  0  0  0  0  2 V2000
   29.9279   -3.9150    0.0000 C   0  0  0  0  0  0  0  0  0  0  0  0
   28.9875   -4.8554    0.0000 C   0  0  0  0  0  0  0  0  0  0  0  0
   29.3274   -6.1471    0.0000 O   0  0  0  0  0  0  0  0  0  0  0  0
   27.7071   -4.5042    0.0000 O   0  5  0  0  0  0  0  0  0  0  0  0
  1  2  1  0  0  0  0
  2  3  2  0  0  0  0
  2  4  1  0  0  0  0
M  CHG  1   4  -1
M  END
$$$$

  ACD/LABS05232610262D

  4  3  0  0  0  0  0  0  0  0  2 V2000
   30.9004   -7.8517    0.0000 C   0  0  0  0  0  0  0  0  0  0  0  0
   29.6158   -8.1959    0.0000 C   0  0  0  0  0  0  0  0  0  0  0  0
   29.2643   -9.4845    0.0000 O   0  0  0  0  0  0  0  0  0  0  0  0
   28.6826   -7.2515    0.0000 O   0  5  0  0  0  0  0  0  0  0  0  0
  1  2  1  0  0  0  0
  2  3  2  0  0  0  0
  2  4  1  0  0  0  0
M  CHG  1   4  -1
M  END
$$$$

  ACD/LABS05232610262D

  4  3  0  0  0  0  0  0  0  0  2 V2000
   23.0427  -14.2134    0.0000 C   0  0  0  0  0  0  0  0  0  0  0  0
   23.0427  -12.8834    0.0000 C   0  0  0  0  0  0  0  0  0  0  0  0
   21.8889  -12.2104    0.0000 O   0  0  0  0  0  0  0  0  0  0  0  0
   24.1964  -12.2264    0.0000 O   0  5  0  0  0  0  0  0  0  0  0  0
  1  2  1  0  0  0  0
  2  3  2  0  0  0  0
  2  4  1  0  0  0  0
M  CHG  1   4  -1
M  END
$$$$

  ACD/LABS05232610262D

  4  3  0  0  0  0  0  0  0  0  2 V2000
   23.2029   -3.6215    0.0000 C   0  0  0  0  0  0  0  0  0  0  0  0
   23.2029   -4.9514    0.0000 C   0  0  0  0  0  0  0  0  0  0  0  0
   24.3566   -5.6245    0.0000 O   0  0  0  0  0  0  0  0  0  0  0  0
   22.0492   -5.6084    0.0000 O   0  5  0  0  0  0  0  0  0  0  0  0
  1  2  1  0  0  0  0
  2  3  2  0  0  0  0
  2  4  1  0  0  0  0
M  CHG  1   4  -1
M  END
$$$$

  ACD/LABS05232610262D

  4  3  0  0  0  0  0  0  0  0  2 V2000
   17.3323  -13.5462    0.0000 C   0  0  0  0  0  0  0  0  0  0  0  0
   18.2727  -12.6057    0.0000 C   0  0  0  0  0  0  0  0  0  0  0  0
   17.9328  -11.3140    0.0000 O   0  0  0  0  0  0  0  0  0  0  0  0
   19.5531  -12.9570    0.0000 O   0  5  0  0  0  0  0  0  0  0  0  0
  1  2  1  0  0  0  0
  2  3  2  0  0  0  0
  2  4  1  0  0  0  0
M  CHG  1   4  -1
M  END
$$$$
