
  ACD/LABS05232611472D

  6  6  0  0  0  0  0  0  0  0  2 V2000
   19.2110   -4.9114    0.0000 C   0  0  0  0  0  0  0  0  0  0  0  0
   19.2110   -6.2414    0.0000 C   0  5  0  0  0  0  0  0  0  0  0  0
   18.0591   -4.2464    0.0000 C   0  0  0  0  0  0  0  0  0  0  0  0
   18.0591   -6.9064    0.0000 C   0  0  0  0  0  0  0  0  0  0  0  0
   16.9073   -4.9114    0.0000 C   0  0  0  0  0  0  0  0  0  0  0  0
   16.9073   -6.2414    0.0000 C   0  0  0  0  0  0  0  0  0  0  0  0
  1  2  1  0  0  0  0
  1  3  2  0  0  0  0
  2  4  2  0  0  0  0
  3  5  1  0  0  0  0
  4  6  1  0  0  0  0
  5  6  2  0  0  0  0
M  CHG  1   2  -1
M  END
$$$$

  ACD/LABS05232611472D

  6  6  0  0  0  0  0  0  0  0  2 V2000
   27.5737   -5.0636    0.0000 C   0  0  0  0  0  0  0  0  0  0  0  0
   27.5737   -6.3936    0.0000 C   0  0  0  0  0  0  0  0  0  0  0  0
   26.4218   -4.3986    0.0000 C   0  0  0  0  0  0  0  0  0  0  0  0
   26.4218   -7.0586    0.0000 C   0  0  0  0  0  0  0  0  0  0  0  0
   25.2700   -5.0636    0.0000 C   0  0  0  0  0  0  0  0  0  0  0  0
   25.2700   -6.3936    0.0000 C   0  5  0  0  0  0  0  0  0  0  0  0
  1  2  1  0  0  0  0
  1  3  2  0  0  0  0
  2  4  2  0  0  0  0
  3  5  1  0  0  0  0
  4  6  1  0  0  0  0
  5  6  2  0  0  0  0
M  CHG  1   6  -1
M  END
$$$$

  ACD/LABS05232611472D

  6  6  0  0  0  0  0  0  0  0  2 V2000
   23.2331  -10.4557    0.0000 C   0  0  0  0  0  0  0  0  0  0  0  0
   23.2331  -11.7857    0.0000 C   0  0  0  0  0  0  0  0  0  0  0  0
   22.0812   -9.7907    0.0000 C   0  5  0  0  0  0  0  0  0  0  0  0
   22.0812  -12.4507    0.0000 C   0  0  0  0  0  0  0  0  0  0  0  0
   20.9294  -10.4557    0.0000 C   0  0  0  0  0  0  0  0  0  0  0  0
   20.9294  -11.7857    0.0000 C   0  0  0  0  0  0  0  0  0  0  0  0
  1  2  1  0  0  0  0
  1  3  2  0  0  0  0
  2  4  2  0  0  0  0
  3  5  1  0  0  0  0
  4  6  1  0  0  0  0
  5  6  2  0  0  0  0
M  CHG  1   3  -1
M  END
$$$$

  ACD/LABS05232611472D

  1  0  0  0  0  0  0  0  0  0  2 V2000
   22.7062   -7.3390    0.0000 Bi  0  1  0  0  0  0  0  0  0  0  0  0
M  CHG  1   1   3
M  END
$$$$
