
  ACD/LABS05232611402D

  1  0  0  0  0  0  0  0  0  0  2 V2000
   20.1423   -7.1147    0.0000 Bi  0  1  0  0  0  0  0  0  0  0  0  0
M  CHG  1   1   3
M  END
$$$$

  ACD/LABS05232611402D

 11 11  0  0  0  0  0  0  0  0  2 V2000
   23.1529  -11.1648    0.0000 C   0  0  0  0  0  0  0  0  0  0  0  0
   23.1529  -12.4948    0.0000 C   0  0  0  0  0  0  0  0  0  0  0  0
   22.0011  -10.4998    0.0000 C   0  0  0  0  0  0  0  0  0  0  0  0
   22.0011  -13.1598    0.0000 C   0  0  0  0  0  0  0  0  0  0  0  0
   20.8493  -11.1648    0.0000 C   0  0  0  0  0  0  0  0  0  0  0  0
   20.8493  -12.4948    0.0000 C   0  0  0  0  0  0  0  0  0  0  0  0
   24.3047  -13.1598    0.0000 N   0  3  0  0  0  0  0  0  0  0  0  0
   25.4565  -13.8248    0.0000 N   0  5  0  0  0  0  0  0  0  0  0  0
   19.6975  -10.4998    0.0000 N   0  3  0  0  0  0  0  0  0  0  0  0
   19.6975   -9.1698    0.0000 C   0  0  0  0  0  0  0  0  0  0  0  0
   18.5456  -11.1648    0.0000 C   0  0  0  0  0  0  0  0  0  0  0  0
  1  2  1  0  0  0  0
  1  3  2  0  0  0  0
  2  4  1  0  0  0  0
  3  5  1  0  0  0  0
  4  6  2  0  0  0  0
  5  6  1  0  0  0  0
  2  7  2  0  0  0  0
  7  8  2  0  0  0  0
  5  9  2  0  0  0  0
  9 10  1  0  0  0  0
  9 11  1  0  0  0  0
M  CHG  3   7   1   8  -1   9   1
M  END
$$$$

  ACD/LABS05232611402D

  1  0  0  0  0  0  0  0  0  0  2 V2000
   23.3952   -8.0761    0.0000 Cl  0  5  0  0  0  0  0  0  0  0  0  0
M  CHG  1   1  -1
M  END
$$$$

  ACD/LABS05232611402D

  1  0  0  0  0  0  0  0  0  0  2 V2000
   17.3541   -8.3486    0.0000 Cl  0  5  0  0  0  0  0  0  0  0  0  0
M  CHG  1   1  -1
M  END
$$$$

  ACD/LABS05232611402D

  1  0  0  0  0  0  0  0  0  0  2 V2000
   17.0977   -5.7847    0.0000 Cl  0  5  0  0  0  0  0  0  0  0  0  0
M  CHG  1   1  -1
M  END
$$$$

  ACD/LABS05232611402D

  1  0  0  0  0  0  0  0  0  0  2 V2000
   20.9595   -4.4707    0.0000 Cl  0  5  0  0  0  0  0  0  0  0  0  0
M  CHG  1   1  -1
M  END
$$$$
