
  ACD/LABS05232610482D

  1  0  0  0  0  0  0  0  0  0  2 V2000
   18.7322   -7.4833    0.0000 Bi  0  1  0  0  0  0  0  0  0  0  0  0
M  CHG  1   1   3
M  END
$$$$

  ACD/LABS05232610482D

  1  0  0  0  0  0  0  0  0  0  2 V2000
   18.7001   -5.0316    0.0000 O   0  6  0  0  0  0  0  0  0  0  0  0
M  CHG  1   1  -2
M  END
$$$$

  ACD/LABS05232610482D

  1  0  0  0  0  0  0  0  0  0  2 V2000
   20.9275   -5.9930    0.0000 Cl  0  5  0  0  0  0  0  0  0  0  0  0
M  CHG  1   1  -1
M  END
$$$$
