
  ACD/LABS05232610452D

  1  0  0  0  0  0  0  0  0  0  2 V2000
   18.7322   -7.4833    0.0000 Bi  0  1  0  0  0  0  0  0  0  0  0  0
M  CHG  1   1   3
M  END
$$$$

  ACD/LABS05232610452D

  1  0  0  0  0  0  0  0  0  0  2 V2000
   17.0016   -6.0251    0.0000 Br  0  5  0  0  0  0  0  0  0  0  0  0
M  CHG  1   1  -1
M  END
$$$$

  ACD/LABS05232610452D

  1  0  0  0  0  0  0  0  0  0  2 V2000
   21.4563   -5.9930    0.0000 Br  0  5  0  0  0  0  0  0  0  0  0  0
M  CHG  1   1  -1
M  END
$$$$

  ACD/LABS05232610452D

  1  0  0  0  0  0  0  0  0  0  2 V2000
   18.9245   -9.9189    0.0000 Br  0  5  0  0  0  0  0  0  0  0  0  0
M  CHG  1   1  -1
M  END
$$$$
