
  ACD/LABS05232612022D

  7  7  0  0  0  0  0  0  0  0  2 V2000
   21.0896   -5.6886    0.0000 C   0  0  0  0  0  0  0  0  0  0  0  0
   21.0896   -7.0186    0.0000 C   0  5  0  0  0  0  0  0  0  0  0  0
   19.9378   -5.0236    0.0000 C   0  0  0  0  0  0  0  0  0  0  0  0
   19.9378   -7.6836    0.0000 C   0  0  0  0  0  0  0  0  0  0  0  0
   18.7860   -5.6886    0.0000 C   0  0  0  0  0  0  0  0  0  0  0  0
   18.7860   -7.0186    0.0000 C   0  0  0  0  0  0  0  0  0  0  0  0
   22.2415   -5.0316    0.0000 C   0  0  0  0  0  0  0  0  0  0  0  0
  1  2  1  0  0  0  0
  1  3  2  0  0  0  0
  2  4  2  0  0  0  0
  3  5  1  0  0  0  0
  4  6  1  0  0  0  0
  5  6  2  0  0  0  0
  1  7  1  0  0  0  0
M  CHG  1   2  -1
M  END
$$$$

  ACD/LABS05232612022D

  7  7  0  0  0  0  0  0  0  0  2 V2000
   23.3933   -9.6786    0.0000 C   0  0  0  0  0  0  0  0  0  0  0  0
   23.3933  -11.0086    0.0000 C   0  0  0  0  0  0  0  0  0  0  0  0
   22.2415   -9.0136    0.0000 C   0  5  0  0  0  0  0  0  0  0  0  0
   22.2415  -11.6736    0.0000 C   0  0  0  0  0  0  0  0  0  0  0  0
   21.0896   -9.6786    0.0000 C   0  0  0  0  0  0  0  0  0  0  0  0
   21.0896  -11.0086    0.0000 C   0  0  0  0  0  0  0  0  0  0  0  0
   20.1423   -8.7331    0.0000 C   0  0  0  0  0  0  0  0  0  0  0  0
  1  2  1  0  0  0  0
  1  3  2  0  0  0  0
  2  4  2  0  0  0  0
  3  5  1  0  0  0  0
  4  6  1  0  0  0  0
  5  6  2  0  0  0  0
  5  7  1  0  0  0  0
M  CHG  1   3  -1
M  END
$$$$

  ACD/LABS05232612022D

  7  7  0  0  0  0  0  0  0  0  2 V2000
   25.6969   -5.6886    0.0000 C   0  0  0  0  0  0  0  0  0  0  0  0
   25.6969   -7.0186    0.0000 C   0  0  0  0  0  0  0  0  0  0  0  0
   24.5451   -5.0236    0.0000 C   0  0  0  0  0  0  0  0  0  0  0  0
   24.5451   -7.6836    0.0000 C   0  0  0  0  0  0  0  0  0  0  0  0
   23.3933   -5.6886    0.0000 C   0  0  0  0  0  0  0  0  0  0  0  0
   23.3933   -7.0186    0.0000 C   0  5  0  0  0  0  0  0  0  0  0  0
   24.5489   -9.0216    0.0000 C   0  0  0  0  0  0  0  0  0  0  0  0
  1  2  1  0  0  0  0
  1  3  2  0  0  0  0
  2  4  2  0  0  0  0
  3  5  1  0  0  0  0
  4  6  1  0  0  0  0
  5  6  2  0  0  0  0
  4  7  1  0  0  0  0
M  CHG  1   6  -1
M  END
$$$$

  ACD/LABS05232612022D

  1  0  0  0  0  0  0  0  0  0  2 V2000
   22.0331   -7.7557    0.0000 Bi  0  0  0  0  0  0  0  0  0  0  0  0
M  CHG  1   1   5
M  END
$$$$

  ACD/LABS05232612022D

  1  0  0  0  0  0  0  0  0  0  2 V2000
   17.4342   -8.9414    0.0000 Cl  0  5  0  0  0  0  0  0  0  0  0  0
M  CHG  1   1  -1
M  END
$$$$

  ACD/LABS05232612022D

  1  0  0  0  0  0  0  0  0  0  2 V2000
   23.1709   -3.0446    0.0000 Cl  0  5  0  0  0  0  0  0  0  0  0  0
M  CHG  1   1  -1
M  END
$$$$
