
  ACD/LABS05232612552D

 20 34  0  0  0  0  0  0  0  0  1 V2000
   19.0527   -8.6851    0.0000 B   0  0  0  0  0  0  0  0  0  0  0  0
   20.9275   -7.7076    0.0000 B   0  0  0  0  0  0  0  0  0  0  0  0
   23.2349   -8.5408    0.0000 B   0  0  0  0  0  0  0  0  0  0  0  0
   20.6070   -9.5984    0.0000 B   0  0  0  0  0  0  0  0  0  0  0  0
   20.5910   -5.9930    0.0000 B   0  0  0  0  0  0  0  0  0  0  0  0
   19.2449  -11.1207    0.0000 B   0  0  0  0  0  0  0  0  0  0  0  0
   22.6421  -11.1047    0.0000 B   0  0  0  0  0  0  0  0  0  0  0  0
   22.6100  -12.1943    0.0000 B   0  0  0  0  0  0  0  0  0  0  0  0
   19.7898  -12.1943    0.0000 B   0  0  0  0  0  0  0  0  0  0  0  0
   21.0396  -13.2359    0.0000 B   0  0  0  0  0  0  0  0  0  0  0  0
   24.6611   -8.3486    0.0000 H   0  0  0  0  0  0  0  0  0  0  0  0
   20.5910   -4.4066    0.0000 H   0  0  0  0  0  0  0  0  0  0  0  0
   17.8348   -8.0761    0.0000 H   0  0  0  0  0  0  0  0  0  0  0  0
   22.4498   -6.1372    0.0000 H   0  0  0  0  0  0  0  0  0  0  0  0
   20.7352  -10.5919    0.0000 H   0  0  0  0  0  0  0  0  0  0  0  0
   23.6516  -11.0887    0.0000 H   0  0  0  0  0  0  0  0  0  0  0  0
   23.5234  -12.9795    0.0000 H   0  0  0  0  0  0  0  0  0  0  0  0
   21.0396  -14.3255    0.0000 H   0  0  0  0  0  0  0  0  0  0  0  0
   19.0046  -12.8193    0.0000 H   0  0  0  0  0  0  0  0  0  0  0  0
   17.9790  -11.0887    0.0000 H   0  0  0  0  0  0  0  0  0  0  0  0
  1  2  1  0  0  0  0
  2  3  1  0  0  0  0
  1  4  1  0  0  0  0
  4  3  1  0  0  0  0
  1  5  1  0  0  0  0
  3  5  1  0  0  0  0
  5  2  1  0  0  0  0
  5  4  1  0  0  0  0
  1  6  1  0  0  0  0
  6  7  1  0  0  0  0
  7  8  1  0  0  0  0
  8  9  1  0  0  0  0
  9  6  1  0  0  0  0
  1  9  1  0  0  0  0
  3  7  1  0  0  0  0
  3  8  1  0  0  0  0
  6  2  1  0  0  0  0
  2  7  1  0  0  0  0
  9  4  1  0  0  0  0
  4  8  1  0  0  0  0
  9 10  1  0  0  0  0
  8 10  1  0  0  0  0
  7 10  1  0  0  0  0
  6 10  1  0  0  0  0
  3 11  1  0  0  0  0
  5 12  1  0  0  0  0
  1 13  1  0  0  0  0
  2 14  1  0  0  0  0
  4 15  1  0  0  0  0
  7 16  1  0  0  0  0
  8 17  1  0  0  0  0
 10 18  1  0  0  0  0
  9 19  1  0  0  0  0
  6 20  1  0  0  0  0
M  END
$$$$

  ACD/LABS05232612552D

  1  0  0  0  0  0  0  0  0  0  2 V2000
   15.0627   -7.4833    0.0000 Cs  0  3  0  0  0  0  0  0  0  0  0  0
M  CHG  1   1   1
M  END
$$$$

  ACD/LABS05232612552D

  1  0  0  0  0  0  0  0  0  0  2 V2000
   14.7261   -9.5984    0.0000 Cs  0  3  0  0  0  0  0  0  0  0  0  0
M  CHG  1   1   1
M  END
$$$$
