
  ACD/LABS05232614102D

  2  1  0  0  0  0  0  0  0  0  2 V2000
   15.6395   -5.7046    0.0000 C   0  0  0  0  0  0  0  0  0  0  0  0
   16.7933   -6.3776    0.0000 C   0  5  0  0  0  0  0  0  0  0  0  0
  1  2  1  0  0  0  0
M  CHG  1   2  -1
M  END
$$$$

  ACD/LABS05232614102D

  1  0  0  0  0  0  0  0  0  0  2 V2000
   19.5334   -7.1467    0.0000 B   0  1  0  0  0  0  0  0  0  0  0  0
M  CHG  1   1   3
M  END
$$$$

  ACD/LABS05232614102D

  1  0  0  0  0  0  0  0  0  0  2 V2000
   21.8569   -6.0731    0.0000 Br  0  5  0  0  0  0  0  0  0  0  0  0
M  CHG  1   1  -1
M  END
$$$$

  ACD/LABS05232614102D

  1  0  0  0  0  0  0  0  0  0  2 V2000
   21.7928   -7.7076    0.0000 Br  0  5  0  0  0  0  0  0  0  0  0  0
M  CHG  1   1  -1
M  END
$$$$
