
  ACD/LABS05242622122D

 12 14  0  0  0  0  0  0  0  0  1 V2000
   16.9515   -6.4110    0.0000 C   0  0  0  0  0  0  0  0  0  0  0  0
   16.9515   -7.7410    0.0000 C   0  0  0  0  0  0  0  0  0  0  0  0
   15.7997   -5.7460    0.0000 C   0  0  0  0  0  0  0  0  0  0  0  0
   15.7997   -8.4060    0.0000 C   0  0  0  0  0  0  0  0  0  0  0  0
   14.6479   -6.4110    0.0000 C   0  0  0  0  0  0  0  0  0  0  0  0
   14.6479   -7.7410    0.0000 C   0  0  0  0  0  0  0  0  0  0  0  0
   18.1033   -5.7460    0.0000 C   0  0  0  0  0  0  0  0  0  0  0  0
   19.2552   -6.4110    0.0000 C   0  0  0  0  0  0  0  0  0  0  0  0
   18.1033   -8.4060    0.0000 C   0  0  0  0  0  0  0  0  0  0  0  0
   19.2552   -7.7410    0.0000 C   0  0  0  0  0  0  0  0  0  0  0  0
   16.1439   -4.4613    0.0000 C   0  0  0  0  0  0  0  0  0  0  0  0
   17.7591   -4.4613    0.0000 C   0  0  0  0  0  0  0  0  0  0  0  0
  1  3  2  0  0  0  0
  2  4  2  0  0  0  0
  3  5  1  0  0  0  0
  4  6  1  0  0  0  0
  5  6  2  0  0  0  0
  1  7  1  0  0  0  0
  1  2  1  0  0  0  0
  7  8  2  0  0  0  0
  2  9  1  0  0  0  0
  8 10  1  0  0  0  0
  9 10  2  0  0  0  0
  3 11  1  0  0  0  0
 11 12  1  0  0  0  0
 12  7  1  0  0  0  0
M  END
$$$$
