
  ACD/LABS05242622282D

  7  6  0  0  0  0  0  0  0  0  1 V2000
   17.2159   -8.1502    0.0000 C   0  0  0  0  0  0  0  0  0  0  0  0
   18.5459   -8.1502    0.0000 C   0  0  0  0  0  0  0  0  0  0  0  0
   19.2109   -6.9984    0.0000 O   0  0  0  0  0  0  0  0  0  0  0  0
   19.2109   -9.3020    0.0000 O   0  0  0  0  0  0  0  0  0  0  0  0
   20.5409   -9.3020    0.0000 C   0  0  0  0  0  0  0  0  0  0  0  0
   21.2059   -8.1502    0.0000 O   0  0  0  0  0  0  0  0  0  0  0  0
   21.2059  -10.4538    0.0000 C   0  0  0  0  0  0  0  0  0  0  0  0
  1  2  1  0  0  0  0
  2  3  2  0  0  0  0
  2  4  1  0  0  0  0
  4  5  1  0  0  0  0
  5  6  2  0  0  0  0
  5  7  1  0  0  0  0
M  END
$$$$
