
  ACD/LABS05242622232D

  4  3  0  0  0  0  0  0  0  0  1 V2000
   17.0777   -8.0601    0.0000 C   0  0  0  0  0  0  0  0  0  0  0  0
   18.4077   -8.0601    0.0000 C   0  0  0  0  0  0  0  0  0  0  0  0
   19.0727   -6.9083    0.0000 O   0  0  0  0  0  0  0  0  0  0  0  0
   19.0727   -9.2119    0.0000 O   0  0  0  0  0  0  0  0  0  0  0  0
  1  2  1  0  0  0  0
  2  3  2  0  0  0  0
  2  4  1  0  0  0  0
M  END
$$$$
