
  ACD/LABS05242622362D

  9  9  0  0  0  0  0  0  0  0  1 V2000
   20.8455   -8.8693    0.0000 C   0  0  0  0  0  0  0  0  0  0  0  0
   20.8455  -10.1993    0.0000 C   0  0  0  0  0  0  0  0  0  0  0  0
   19.6936   -8.2043    0.0000 C   0  0  0  0  0  0  0  0  0  0  0  0
   19.6936  -10.8643    0.0000 C   0  0  0  0  0  0  0  0  0  0  0  0
   18.5418   -8.8693    0.0000 C   0  0  0  0  0  0  0  0  0  0  0  0
   18.5418  -10.1993    0.0000 C   0  0  0  0  0  0  0  0  0  0  0  0
   19.6936   -6.8743    0.0000 C   0  0  0  0  0  0  0  0  0  0  0  0
   18.5399   -6.2174    0.0000 O   0  0  0  0  0  0  0  0  0  0  0  0
   20.8474   -6.2013    0.0000 C   0  0  0  0  0  0  0  0  0  0  0  0
  1  2  1  0  0  0  0
  1  3  2  0  0  0  0
  2  4  2  0  0  0  0
  3  5  1  0  0  0  0
  4  6  1  0  0  0  0
  5  6  2  0  0  0  0
  3  7  1  0  0  0  0
  7  8  2  0  0  0  0
  7  9  1  0  0  0  0
M  END
$$$$
