
  ACD/LABS05242622372D

  4  3  0  0  0  0  0  0  0  0  1 V2000
   20.0261   -7.1788    0.0000 C   0  0  0  0  0  0  0  0  0  0  0  0
   18.6961   -7.1788    0.0000 O   0  0  0  0  0  0  0  0  0  0  0  0
   20.6911   -6.0270    0.0000 C   0  0  0  0  0  0  0  0  0  0  0  0
   20.6911   -8.3306    0.0000 Cl  0  0  0  0  0  0  0  0  0  0  0  0
  1  2  2  0  0  0  0
  1  3  1  0  0  0  0
  1  4  1  0  0  0  0
M  END
$$$$
