
  ACD/LABS05242622212D

  4  3  0  0  0  0  0  0  0  0  1 V2000
   16.5218   -7.4973    0.0000 C   0  0  0  0  0  0  0  0  0  0  0  0
   16.5218   -6.3916    0.0000 O   0  0  0  0  0  0  0  0  0  0  0  0
   15.5643   -8.0501    0.0000 C   0  0  0  0  0  0  0  0  0  0  0  0
   17.4794   -8.0501    0.0000 N   0  0  0  0  0  0  0  0  0  0  0  0
  1  2  2  0  0  0  0
  1  3  1  0  0  0  0
  1  4  1  0  0  0  0
M  END
$$$$
