
  ACD/LABS05242622182D

  3  2  0  0  0  0  0  0  0  0  1 V2000
   16.4227   -7.4392    0.0000 C   0  0  0  0  0  0  0  0  0  0  0  0
   16.4227   -6.3335    0.0000 O   0  0  0  0  0  0  0  0  0  0  0  0
   15.4652   -7.9920    0.0000 C   0  0  0  0  0  0  0  0  0  0  0  0
  1  2  2  0  0  0  0
  1  3  1  0  0  0  0
M  END
$$$$
