
  ACD/LABS05242622332D

  4  3  0  0  0  0  0  0  0  0  1 V2000
   17.2159   -8.2183    0.0000 C   0  0  0  0  0  0  0  0  0  0  0  0
   18.5459   -8.2183    0.0000 C   0  0  0  0  0  0  0  0  0  0  0  0
   19.2109   -7.0665    0.0000 O   0  0  0  0  0  0  0  0  0  0  0  0
   19.2109   -9.3701    0.0000 C   0  0  0  0  0  0  0  0  0  0  0  0
  1  2  1  0  0  0  0
  2  3  2  0  0  0  0
  2  4  1  0  0  0  0
M  END
$$$$
