
  ACD/LABS05242622342D

  3  2  0  0  0  0  0  0  0  0  1 V2000
   17.8779   -8.2193    0.0000 C   0  0  0  0  0  0  0  0  0  0  0  0
   19.2079   -8.2193    0.0000 C   0  0  0  0  0  0  0  0  0  0  0  0
   20.5379   -8.2193    0.0000 N   0  0  0  0  0  0  0  0  0  0  0  0
  1  2  1  0  0  0  0
  2  3  3  0  0  0  0
M  END
$$$$
