
  ACD/LABS05242622432D

 14 16  0  0  0  0  0  0  0  0  1 V2000
   15.2691   -7.3951    0.0000 C   0  0  0  0  0  0  0  0  0  0  0  0
   15.2691   -8.7251    0.0000 C   0  0  0  0  0  0  0  0  0  0  0  0
   14.1172   -6.7301    0.0000 C   0  0  0  0  0  0  0  0  0  0  0  0
   14.1172   -9.3901    0.0000 C   0  0  0  0  0  0  0  0  0  0  0  0
   12.9654   -7.3951    0.0000 C   0  0  0  0  0  0  0  0  0  0  0  0
   12.9654   -8.7251    0.0000 C   0  0  0  0  0  0  0  0  0  0  0  0
   16.4208   -6.7302    0.0000 N   0  0  0  0  0  0  0  0  0  0  0  0
   17.5726   -7.3953    0.0000 C   0  0  0  0  0  0  0  0  0  0  0  0
   16.4208   -9.3901    0.0000 C   0  0  0  0  0  0  0  0  0  0  0  0
   17.5726   -8.7252    0.0000 C   0  0  0  0  0  0  0  0  0  0  0  0
   18.7243   -6.7305    0.0000 C   0  0  0  0  0  0  0  0  0  0  0  0
   19.8760   -7.3955    0.0000 C   0  0  0  0  0  0  0  0  0  0  0  0
   18.7241   -9.3901    0.0000 C   0  0  0  0  0  0  0  0  0  0  0  0
   19.8758   -8.7253    0.0000 C   0  0  0  0  0  0  0  0  0  0  0  0
  1  3  2  0  0  0  0
  2  4  2  0  0  0  0
  3  5  1  0  0  0  0
  4  6  1  0  0  0  0
  5  6  2  0  0  0  0
  1  7  1  0  0  0  0
  1  2  1  0  0  0  0
  7  8  2  0  0  0  0
  2  9  1  0  0  0  0
  9 10  2  0  0  0  0
  8 11  1  0  0  0  0
  8 10  1  0  0  0  0
 11 12  2  0  0  0  0
 10 13  1  0  0  0  0
 12 14  1  0  0  0  0
 13 14  2  0  0  0  0
M  END
$$$$
