
  ACD/LABS05242622442D

  3  2  0  0  0  0  0  0  0  0  1 V2000
   15.8639   -7.0025    0.0000 C   0  0  0  0  0  0  0  0  0  0  0  0
   17.1939   -7.0025    0.0000 C   0  0  0  0  0  0  0  0  0  0  0  0
   18.5239   -7.0025    0.0000 C   0  0  0  0  0  0  0  0  0  0  0  0
  1  2  2  0  0  0  0
  2  3  2  0  0  0  0
M  END
$$$$
