
  ACD/LABS05242622462D

  4  3  0  0  0  0  0  0  0  0  1 V2000
   16.5878   -7.0065    0.0000 C   0  0  0  0  0  0  0  0  0  0  0  0
   17.7396   -6.3415    0.0000 C   0  0  0  0  0  0  0  0  0  0  0  0
   18.8915   -7.0065    0.0000 C   0  0  0  0  0  0  0  0  0  0  0  0
   20.0433   -6.3415    0.0000 O   0  0  0  0  0  0  0  0  0  0  0  0
  1  2  2  0  0  0  0
  2  3  1  0  0  0  0
  3  4  1  0  0  0  0
M  END
$$$$
