
  ACD/LABS05242622482D

  7  7  0  0  0  0  0  0  0  0  1 V2000
   21.7909   -6.5779    0.0000 C   0  0  0  0  0  0  0  0  0  0  0  0
   21.7909   -7.9079    0.0000 C   0  0  0  0  0  0  0  0  0  0  0  0
   20.6390   -5.9129    0.0000 C   0  0  0  0  0  0  0  0  0  0  0  0
   20.6390   -8.5729    0.0000 C   0  0  0  0  0  0  0  0  0  0  0  0
   19.4872   -6.5779    0.0000 C   0  0  0  0  0  0  0  0  0  0  0  0
   19.4872   -7.9079    0.0000 C   0  0  0  0  0  0  0  0  0  0  0  0
   20.6390   -4.5829    0.0000 N   0  0  0  0  0  0  0  0  0  0  0  0
  1  2  1  0  0  0  0
  1  3  2  0  0  0  0
  2  4  2  0  0  0  0
  3  5  1  0  0  0  0
  4  6  1  0  0  0  0
  5  6  2  0  0  0  0
  3  7  1  0  0  0  0
M  END
$$$$
