
  ACD/LABS05242622502D

  8  8  0  0  0  0  0  0  0  0  1 V2000
   21.7918   -6.5739    0.0000 C   0  0  0  0  0  0  0  0  0  0  0  0
   21.7918   -7.9039    0.0000 C   0  0  0  0  0  0  0  0  0  0  0  0
   20.6400   -5.9089    0.0000 C   0  0  0  0  0  0  0  0  0  0  0  0
   20.6400   -8.5689    0.0000 C   0  0  0  0  0  0  0  0  0  0  0  0
   19.4882   -6.5739    0.0000 C   0  0  0  0  0  0  0  0  0  0  0  0
   19.4882   -7.9039    0.0000 C   0  0  0  0  0  0  0  0  0  0  0  0
   20.6400   -4.5789    0.0000 O   0  0  0  0  0  0  0  0  0  0  0  0
   21.7918   -3.9139    0.0000 C   0  0  0  0  0  0  0  0  0  0  0  0
  1  2  1  0  0  0  0
  1  3  2  0  0  0  0
  2  4  2  0  0  0  0
  3  5  1  0  0  0  0
  4  6  1  0  0  0  0
  5  6  2  0  0  0  0
  3  7  1  0  0  0  0
  7  8  1  0  0  0  0
M  END
$$$$
