
  ACD/LABS05242622512D

 14 16  0  0  0  0  0  0  0  0  1 V2000
   21.7918   -6.5739    0.0000 C   0  0  0  0  0  0  0  0  0  0  0  0
   21.7918   -7.9039    0.0000 C   0  0  0  0  0  0  0  0  0  0  0  0
   20.6400   -5.9089    0.0000 C   0  0  0  0  0  0  0  0  0  0  0  0
   20.6400   -8.5689    0.0000 C   0  0  0  0  0  0  0  0  0  0  0  0
   19.4882   -6.5739    0.0000 C   0  0  0  0  0  0  0  0  0  0  0  0
   19.4882   -7.9039    0.0000 C   0  0  0  0  0  0  0  0  0  0  0  0
   22.9436   -5.9090    0.0000 C   0  0  0  0  0  0  0  0  0  0  0  0
   24.0953   -6.5740    0.0000 C   0  0  0  0  0  0  0  0  0  0  0  0
   22.9435   -8.5689    0.0000 C   0  0  0  0  0  0  0  0  0  0  0  0
   24.0953   -7.9039    0.0000 C   0  0  0  0  0  0  0  0  0  0  0  0
   25.2470   -5.9092    0.0000 C   0  0  0  0  0  0  0  0  0  0  0  0
   26.3987   -6.5743    0.0000 C   0  0  0  0  0  0  0  0  0  0  0  0
   25.2469   -8.5689    0.0000 C   0  0  0  0  0  0  0  0  0  0  0  0
   26.3986   -7.9041    0.0000 C   0  0  0  0  0  0  0  0  0  0  0  0
  1  3  2  0  0  0  0
  2  4  2  0  0  0  0
  3  5  1  0  0  0  0
  4  6  1  0  0  0  0
  5  6  2  0  0  0  0
  1  7  1  0  0  0  0
  1  2  1  0  0  0  0
  7  8  2  0  0  0  0
  2  9  1  0  0  0  0
  9 10  2  0  0  0  0
  8 11  1  0  0  0  0
  8 10  1  0  0  0  0
 11 12  2  0  0  0  0
 10 13  1  0  0  0  0
 12 14  1  0  0  0  0
 13 14  2  0  0  0  0
M  END
$$$$
