
  ACD/LABS05242622562D

 10 11  0  0  0  0  0  0  0  0  1 V2000
   15.6820   -4.7126    0.0000 C   0  0  0  0  0  0  0  0  0  0  0  0
   16.6811   -3.4597    0.0000 C   0  0  0  0  0  0  0  0  0  0  0  0
   18.2835   -3.4597    0.0000 C   0  0  0  0  0  0  0  0  0  0  0  0
   19.2826   -4.7126    0.0000 C   0  0  0  0  0  0  0  0  0  0  0  0
   18.9260   -6.2748    0.0000 C   0  0  0  0  0  0  0  0  0  0  0  0
   17.4823   -6.9701    0.0000 C   0  0  0  0  0  0  0  0  0  0  0  0
   16.0386   -6.2748    0.0000 C   0  0  0  0  0  0  0  0  0  0  0  0
   20.8785   -4.5690    0.0000 C   0  0  0  0  0  0  0  0  0  0  0  0
   21.5083   -6.0424    0.0000 C   0  0  0  0  0  0  0  0  0  0  0  0
   20.3017   -7.0967    0.0000 C   0  0  0  0  0  0  0  0  0  0  0  0
  1  2  1  0  0  0  0
  3  4  1  0  0  0  0
  5  6  2  0  0  0  0
  6  7  1  0  0  0  0
  7  1  2  0  0  0  0
  2  3  2  0  0  0  0
  4  8  2  0  0  0  0
  4  5  1  0  0  0  0
  8  9  1  0  0  0  0
  5 10  1  0  0  0  0
  9 10  2  0  0  0  0
M  END
$$$$
