
  ACD/LABS05232616402D

 31 36  0  0  0  0  0  0  0  0  1 V2000
   24.0200  -14.2269    0.0000 C   0  0  0  0  0  0  0  0  0  0  0  0
   23.3554  -13.0757    0.0000 C   0  0  0  0  0  0  0  0  0  0  0  0
   23.3548  -15.3787    0.0000 C   0  0  0  0  0  0  0  0  0  0  0  0
   22.0254  -13.0762    0.0000 C   0  0  0  0  0  0  0  0  0  0  0  0
   22.0403  -15.3699    0.0000 C   0  0  0  0  0  0  0  0  0  0  0  0
   21.3757  -14.2187    0.0000 C   0  0  0  0  0  0  0  0  0  0  0  0
   21.3608  -11.9250    0.0000 B   0  0  0  0  0  0  0  0  0  0  0  0
   20.0510  -11.9243    0.0000 C   0  0  0  0  0  0  0  0  0  0  0  0
   19.3811  -13.0680    0.0000 C   0  0  0  0  0  0  0  0  0  0  0  0
   19.3864  -10.7732    0.0000 C   0  0  0  0  0  0  0  0  0  0  0  0
   18.0556  -13.0764    0.0000 C   0  0  0  0  0  0  0  0  0  0  0  0
   18.0564  -10.7736    0.0000 C   0  0  0  0  0  0  0  0  0  0  0  0
   17.3910  -11.9252    0.0000 C   0  0  0  0  0  0  0  0  0  0  0  0
   21.3661   -9.6302    0.0000 C   0  0  0  0  0  0  0  0  0  0  0  0
   22.0315   -8.4786    0.0000 C   0  0  0  0  0  0  0  0  0  0  0  0
   22.0308  -10.7814    0.0000 C   0  0  0  0  0  0  0  0  0  0  0  0
   23.3615   -8.4782    0.0000 C   0  0  0  0  0  0  0  0  0  0  0  0
   23.3562  -10.7730    0.0000 C   0  0  0  0  0  0  0  0  0  0  0  0
   24.0261   -9.6293    0.0000 C   0  0  0  0  0  0  0  0  0  0  0  0
   20.0361   -9.6306    0.0000 C   0  0  0  0  0  0  0  0  0  0  0  0
   19.3715   -8.4795    0.0000 C   0  0  0  0  0  0  0  0  0  0  0  0
   21.3669   -7.3274    0.0000 C   0  0  0  0  0  0  0  0  0  0  0  0
   20.0367   -7.3276    0.0000 C   0  0  0  0  0  0  0  0  0  0  0  0
   20.0457  -14.2192    0.0000 C   0  0  0  0  0  0  0  0  0  0  0  0
   19.3803  -15.3708    0.0000 C   0  0  0  0  0  0  0  0  0  0  0  0
   17.3857  -14.2200    0.0000 C   0  0  0  0  0  0  0  0  0  0  0  0
   18.0503  -15.3712    0.0000 C   0  0  0  0  0  0  0  0  0  0  0  0
   25.3502  -14.2267    0.0000 C   0  0  0  0  0  0  0  0  0  0  0  0
   26.0154  -13.0749    0.0000 C   0  0  0  0  0  0  0  0  0  0  0  0
   24.0208  -11.9241    0.0000 C   0  0  0  0  0  0  0  0  0  0  0  0
   25.3508  -11.9237    0.0000 C   0  0  0  0  0  0  0  0  0  0  0  0
  1  3  2  0  0  0  0
  2  4  2  0  0  0  0
  3  5  1  0  0  0  0
  4  6  1  0  0  0  0
  5  6  2  0  0  0  0
  4  7  1  0  0  0  0
  8  9  1  0  0  0  0
  8 10  2  0  0  0  0
 10 12  1  0  0  0  0
 11 13  1  0  0  0  0
 12 13  2  0  0  0  0
  7  8  1  0  0  0  0
 14 16  2  0  0  0  0
 15 17  2  0  0  0  0
 16 18  1  0  0  0  0
 17 19  1  0  0  0  0
 18 19  2  0  0  0  0
  7 16  1  0  0  0  0
 14 20  1  0  0  0  0
 14 15  1  0  0  0  0
 20 21  2  0  0  0  0
 15 22  1  0  0  0  0
 21 23  1  0  0  0  0
 22 23  2  0  0  0  0
  9 24  1  0  0  0  0
  9 11  2  0  0  0  0
 24 25  2  0  0  0  0
 11 26  1  0  0  0  0
 25 27  1  0  0  0  0
 26 27  2  0  0  0  0
  1 28  1  0  0  0  0
  1  2  1  0  0  0  0
 28 29  2  0  0  0  0
  2 30  1  0  0  0  0
 29 31  1  0  0  0  0
 30 31  2  0  0  0  0
M  END
$$$$
