
  ACD/LABS05232615342D

 19 18  0  0  0  0  0  0  0  0  1 V2000
   23.0491   -8.4528    0.0000 B   0  0  0  0  0  0  0  0  0  0  0  0
   21.9057   -9.1129    0.0000 O   0  0  0  0  0  0  0  0  0  0  0  0
   21.9061  -10.4429    0.0000 C   0  0  0  0  0  0  0  0  0  0  0  0
   23.0579  -11.1084    0.0000 C   0  0  0  0  0  0  0  0  0  0  0  0
   20.7551  -11.1075    0.0000 O   0  0  0  0  0  0  0  0  0  0  0  0
   24.2007   -9.1181    0.0000 O   0  0  0  0  0  0  0  0  0  0  0  0
   25.3518   -8.4535    0.0000 C   0  0  0  0  0  0  0  0  0  0  0  0
   25.3514   -7.1235    0.0000 O   0  0  0  0  0  0  0  0  0  0  0  0
   26.5035   -9.1191    0.0000 C   0  0  0  0  0  0  0  0  0  0  0  0
   21.9062   -6.4731    0.0000 B   0  0  0  0  0  0  0  0  0  0  0  0
   20.7628   -7.1332    0.0000 O   0  0  0  0  0  0  0  0  0  0  0  0
   19.6112   -6.4679    0.0000 C   0  0  0  0  0  0  0  0  0  0  0  0
   19.6107   -5.1377    0.0000 C   0  0  0  0  0  0  0  0  0  0  0  0
   18.4601   -7.1325    0.0000 O   0  0  0  0  0  0  0  0  0  0  0  0
   22.1333   -5.1653    0.0000 O   0  0  0  0  0  0  0  0  0  0  0  0
   23.3799   -4.7012    0.0000 C   0  0  0  0  0  0  0  0  0  0  0  0
   24.3959   -5.5573    0.0000 O   0  0  0  0  0  0  0  0  0  0  0  0
   23.6070   -3.3934    0.0000 C   0  0  0  0  0  0  0  0  0  0  0  0
   23.0533   -7.1306    0.0000 O   0  0  0  0  0  0  0  0  0  0  0  0
  1  2  1  0  0  0  0
  2  3  1  0  0  0  0
  3  4  1  0  0  0  0
  3  5  2  0  0  0  0
  1  6  1  0  0  0  0
  6  7  1  0  0  0  0
  7  8  2  0  0  0  0
  7  9  1  0  0  0  0
 10 11  1  0  0  0  0
 11 12  1  0  0  0  0
 12 13  1  0  0  0  0
 12 14  2  0  0  0  0
 10 15  1  0  0  0  0
 15 16  1  0  0  0  0
 16 17  2  0  0  0  0
 16 18  1  0  0  0  0
 10 19  1  0  0  0  0
  1 19  1  0  0  0  0
M  END
$$$$
