
  ACD/LABS05232614242D

  7  6  0  0  0  0  0  0  0  0  1 V2000
   20.5269   -9.4542    0.0000 B   0  0  0  0  0  0  0  0  0  0  0  0
   22.3055  -10.0792    0.0000 O   0  0  0  0  0  0  0  0  0  0  0  0
   20.4948   -7.6595    0.0000 O   0  0  0  0  0  0  0  0  0  0  0  0
   19.0527  -10.2875    0.0000 O   0  0  0  0  0  0  0  0  0  0  0  0
   22.5459   -7.0987    0.0000 C   0  0  0  0  0  0  0  0  0  0  0  0
   22.7702  -11.1047    0.0000 C   0  0  0  0  0  0  0  0  0  0  0  0
   19.2129  -11.3771    0.0000 C   0  0  0  0  0  0  0  0  0  0  0  0
  1  2  1  0  0  0  0
  1  3  1  0  0  0  0
  1  4  1  0  0  0  0
  3  5  1  0  0  0  0
  2  6  1  0  0  0  0
  4  7  1  0  0  0  0
M  END
$$$$
