
  ACD/LABS05232615492D

 14 15  0  0  0  0  0  0  0  0  1 V2000
   21.5852   -7.8906    0.0000 B   0  0  0  0  0  0  0  0  0  0  0  0
   22.2627   -4.9417    0.0000 O   0  0  0  0  0  0  0  0  0  0  0  0
   24.4481   -8.6655    0.0000 O   0  0  0  0  0  0  0  0  0  0  0  0
   20.4172  -10.7087    0.0000 O   0  0  0  0  0  0  0  0  0  0  0  0
   18.9382  -11.1007    0.0000 C   0  0  0  0  0  0  0  0  0  0  0  0
   17.8533  -10.0217    0.0000 C   0  0  0  0  0  0  0  0  0  0  0  0
   18.2460   -8.5277    0.0000 C   0  0  0  0  0  0  0  0  0  0  0  0
   25.7804   -7.8963    0.0000 C   0  0  0  0  0  0  0  0  0  0  0  0
   25.7801   -6.3571    0.0000 C   0  0  0  0  0  0  0  0  0  0  0  0
   24.4471   -5.5871    0.0000 C   0  0  0  0  0  0  0  0  0  0  0  0
   21.4936   -3.6095    0.0000 C   0  0  0  0  0  0  0  0  0  0  0  0
   19.9543   -3.6100    0.0000 C   0  0  0  0  0  0  0  0  0  0  0  0
   19.1933   -4.9375    0.0000 C   0  0  0  0  0  0  0  0  0  0  0  0
   20.5094   -6.8067    0.0000 N   0  0  0  0  0  0  0  0  0  0  0  0
  1  2  1  0  0  0  0
  1  3  1  0  0  0  0
  1  4  1  0  0  0  0
  4  5  1  0  0  0  0
  5  6  1  0  0  0  0
  6  7  1  0  0  0  0
  3  8  1  0  0  0  0
  8  9  1  0  0  0  0
  9 10  1  0  0  0  0
  2 11  1  0  0  0  0
 11 12  1  0  0  0  0
 12 13  1  0  0  0  0
  7 14  1  0  0  0  0
 10 14  1  0  0  0  0
 13 14  1  0  0  0  0
M  END
$$$$
