
  ACD/LABS05232612242D

  4  3  0  0  0  0  0  0  0  0  1 V2000
   21.8569   -7.4352    0.0000 B   0  0  0  0  0  0  0  0  0  0  0  0
   23.4753   -8.5729    0.0000 O   0  0  0  0  0  0  0  0  0  0  0  0
   21.8088   -5.8167    0.0000 O   0  0  0  0  0  0  0  0  0  0  0  0
   20.7192   -8.1242    0.0000 O   0  0  0  0  0  0  0  0  0  0  0  0
  1  2  1  0  0  0  0
  1  3  1  0  0  0  0
  1  4  1  0  0  0  0
M  END
>  <Formula>
B H3 O3 

>  <FW>
61.831

$$$$
