
  ACD/LABS05232612342D

  1  0  0  0  0  0  0  0  0  0  2 V2000
   21.3601   -7.2269    0.0000 B   0  1  0  0  0  0  0  0  0  0  0  0
M  CHG  1   1   3
M  END
$$$$

  ACD/LABS05232612342D

  1  0  0  0  0  0  0  0  0  0  2 V2000
   21.3441   -9.3901    0.0000 B   0  1  0  0  0  0  0  0  0  0  0  0
M  CHG  1   1   3
M  END
$$$$

  ACD/LABS05232612342D

  1  0  0  0  0  0  0  0  0  0  2 V2000
   24.3246   -5.9610    0.0000 O   0  6  0  0  0  0  0  0  0  0  0  0
M  CHG  1   1  -2
M  END
$$$$

  ACD/LABS05232612342D

  1  0  0  0  0  0  0  0  0  0  2 V2000
   24.4848   -8.0121    0.0000 O   0  6  0  0  0  0  0  0  0  0  0  0
M  CHG  1   1  -2
M  END
$$$$

  ACD/LABS05232612342D

  1  0  0  0  0  0  0  0  0  0  2 V2000
   24.4207   -9.9189    0.0000 O   0  6  0  0  0  0  0  0  0  0  0  0
M  CHG  1   1  -2
M  END
$$$$
