
  ACD/LABS05232609342D

  1  0  0  0  0  0  0  0  0  0  2 V2000
   14.3255   -6.2814    0.0000 Ba  0  2  0  0  0  0  0  0  0  0  0  0
M  CHG  1   1   2
M  END
$$$$

  ACD/LABS05232609342D

  1  0  0  0  0  0  0  0  0  0  1 V2000
   10.8643   -2.8683    0.0000 O   0  0  0  0  0  0  0  0  0  0  0  0
M  END
$$$$

  ACD/LABS05232609342D

  1  0  0  0  0  0  0  0  0  0  1 V2000
   10.7201   -4.4547    0.0000 O   0  0  0  0  0  0  0  0  0  0  0  0
M  END
$$$$

  ACD/LABS05232609342D

  4  3  0  0  0  0  0  0  0  0  2 V2000
   18.2434   -3.8618    0.0000 C   0  0  0  0  0  0  0  0  0  0  0  0
   19.6696   -3.8618    0.0000 C   0  0  0  0  0  0  0  0  0  0  0  0
   20.3827   -2.6267    0.0000 O   0  0  0  0  0  0  0  0  0  0  0  0
   20.3827   -5.0969    0.0000 O   0  5  0  0  0  0  0  0  0  0  0  0
  1  2  1  0  0  0  0
  2  3  2  0  0  0  0
  2  4  1  0  0  0  0
M  CHG  1   4  -1
M  END
$$$$

  ACD/LABS05232609342D

  4  3  0  0  0  0  0  0  0  0  2 V2000
   17.6826   -7.7717    0.0000 C   0  0  0  0  0  0  0  0  0  0  0  0
   19.1087   -7.7717    0.0000 C   0  0  0  0  0  0  0  0  0  0  0  0
   19.8218   -6.5366    0.0000 O   0  0  0  0  0  0  0  0  0  0  0  0
   19.8218   -9.0068    0.0000 O   0  5  0  0  0  0  0  0  0  0  0  0
  1  2  1  0  0  0  0
  2  3  2  0  0  0  0
  2  4  1  0  0  0  0
M  CHG  1   4  -1
M  END
$$$$
