
  ACD/LABS05232609192D

  1  0  0  0  0  0  0  0  0  0  2 V2000
   14.2615   -5.9930    0.0000 Ba  0  2  0  0  0  0  0  0  0  0  0  0
M  CHG  1   1   2
M  END
$$$$

  ACD/LABS05232609192D

  4  3  0  0  0  0  0  0  0  0  2 V2000
   18.6681   -6.9865    0.0000 C   0  0  0  0  0  0  0  0  0  0  0  0
   19.9981   -6.9865    0.0000 C   0  0  0  0  0  0  0  0  0  0  0  0
   20.6551   -5.8328    0.0000 O   0  0  0  0  0  0  0  0  0  0  0  0
   20.6711   -8.1402    0.0000 O   0  5  0  0  0  0  0  0  0  0  0  0
  1  2  1  0  0  0  0
  2  3  2  0  0  0  0
  2  4  1  0  0  0  0
M  CHG  1   4  -1
M  END
$$$$

  ACD/LABS05232609192D

  4  3  0  0  0  0  0  0  0  0  2 V2000
   18.8123   -3.4772    0.0000 C   0  0  0  0  0  0  0  0  0  0  0  0
   20.1423   -3.4772    0.0000 C   0  0  0  0  0  0  0  0  0  0  0  0
   20.7993   -2.3235    0.0000 O   0  0  0  0  0  0  0  0  0  0  0  0
   20.8153   -4.6310    0.0000 O   0  5  0  0  0  0  0  0  0  0  0  0
  1  2  1  0  0  0  0
  2  3  2  0  0  0  0
  2  4  1  0  0  0  0
M  CHG  1   4  -1
M  END
$$$$
