
  ACD/LABS05232609412D

  1  0  0  0  0  0  0  0  0  0  2 V2000
   14.3255   -6.2814    0.0000 Ba  0  2  0  0  0  0  0  0  0  0  0  0
M  CHG  1   1   2
M  END
$$$$

  ACD/LABS05232609412D

  7  6  0  0  0  0  0  0  0  0  2 V2000
   16.0361   -7.9868    0.0000 C   0  0  0  0  0  0  0  0  0  0  0  0
   17.4623   -7.9868    0.0000 C   0  0  0  0  0  0  0  0  0  0  0  0
   18.1753   -6.7517    0.0000 C   0  0  0  0  0  0  0  0  0  0  0  0
   18.1753   -9.2219    0.0000 O   0  5  0  0  0  0  0  0  0  0  0  0
   15.3230   -9.2219    0.0000 C   0  0  0  0  0  0  0  0  0  0  0  0
   13.8969   -9.2219    0.0000 C   0  0  0  0  0  0  0  0  0  0  0  0
   16.0361  -10.4569    0.0000 O   0  0  0  0  0  0  0  0  0  0  0  0
  1  2  2  0  0  0  0
  2  3  1  0  0  0  0
  2  4  1  0  0  0  0
  1  5  1  0  0  0  0
  5  6  1  0  0  0  0
  5  7  2  0  0  0  0
M  CHG  1   4  -1
M  END
$$$$

  ACD/LABS05232609412D

  7  6  0  0  0  0  0  0  0  0  2 V2000
   12.2384   -2.6508    0.0000 C   0  0  0  0  0  0  0  0  0  0  0  0
   13.6646   -2.6508    0.0000 C   0  0  0  0  0  0  0  0  0  0  0  0
   14.3776   -1.4157    0.0000 C   0  0  0  0  0  0  0  0  0  0  0  0
   14.3776   -3.8858    0.0000 O   0  5  0  0  0  0  0  0  0  0  0  0
   11.5253   -3.8858    0.0000 C   0  0  0  0  0  0  0  0  0  0  0  0
   10.0992   -3.8858    0.0000 C   0  0  0  0  0  0  0  0  0  0  0  0
   12.2384   -5.1209    0.0000 O   0  0  0  0  0  0  0  0  0  0  0  0
  1  2  2  0  0  0  0
  2  3  1  0  0  0  0
  2  4  1  0  0  0  0
  1  5  1  0  0  0  0
  5  6  1  0  0  0  0
  5  7  2  0  0  0  0
M  CHG  1   4  -1
M  END
$$$$
