
  ACD/LABS05232609122D

  1  0  0  0  0  0  0  0  0  0  2 V2000
   14.2615   -5.9930    0.0000 Ba  0  2  0  0  0  0  0  0  0  0  0  0
M  CHG  1   1   2
M  END
$$$$

  ACD/LABS05232609122D

  3  2  0  0  0  0  0  0  0  0  2 V2000
   22.7730   -6.3496    0.0000 C   0  0  0  0  0  0  0  0  0  0  0  0
   22.7730   -4.9555    0.0000 O   0  0  0  0  0  0  0  0  0  0  0  0
   21.5657   -7.0466    0.0000 O   0  5  0  0  0  0  0  0  0  0  0  0
  1  2  2  0  0  0  0
  1  3  1  0  0  0  0
M  CHG  1   3  -1
M  END
$$$$

  ACD/LABS05232609122D

  3  2  0  0  0  0  0  0  0  0  2 V2000
   18.2702   -6.3496    0.0000 C   0  0  0  0  0  0  0  0  0  0  0  0
   18.2702   -4.9555    0.0000 O   0  0  0  0  0  0  0  0  0  0  0  0
   17.0629   -7.0466    0.0000 O   0  5  0  0  0  0  0  0  0  0  0  0
  1  2  2  0  0  0  0
  1  3  1  0  0  0  0
M  CHG  1   3  -1
M  END
$$$$
