
  ACD/LABS05232609532D

  1  0  0  0  0  0  0  0  0  0  2 V2000
   14.2615   -5.9930    0.0000 Ba  0  2  0  0  0  0  0  0  0  0  0  0
M  CHG  1   1   2
M  END
$$$$

  ACD/LABS05232609532D

 24 27  0  0  0  0  0  0  0  0  2 V2000
   10.1929   -8.1914    0.0000 C   0  0  0  0  0  0  0  0  0  0  0  0
   10.8530   -7.0481    0.0000 C   0  0  0  0  0  0  0  0  0  0  0  0
   10.8580   -9.3429    0.0000 C   0  0  0  0  0  0  0  0  0  0  0  0
   12.1827   -7.0484    0.0000 C   0  0  0  0  0  0  0  0  0  0  0  0
   12.1880   -9.3433    0.0000 C   0  0  0  0  0  0  0  0  0  0  0  0
   12.8480   -8.2000    0.0000 C   0  0  0  0  0  0  0  0  0  0  0  0
   13.0817  -10.3301    0.0000 C   0  0  0  0  0  0  0  0  0  0  0  0
   14.2931   -9.7912    0.0000 C   0  0  0  0  0  0  0  0  0  0  0  0
   14.1537   -8.4732    0.0000 C   0  0  0  0  0  0  0  0  0  0  0  0
   12.8012  -11.6312    0.0000 O   0  0  0  0  0  0  0  0  0  0  0  0
   15.1361   -7.5871    0.0000 O   0  0  0  0  0  0  0  0  0  0  0  0
   14.8239  -10.9983    0.0000 O   0  5  0  0  0  0  0  0  0  0  0  0
   19.7038  -11.2476    0.0000 C   0  0  0  0  0  0  0  0  0  0  0  0
   19.0437  -12.3909    0.0000 C   0  0  0  0  0  0  0  0  0  0  0  0
   19.0387  -10.0962    0.0000 C   0  0  0  0  0  0  0  0  0  0  0  0
   17.7140  -12.3907    0.0000 C   0  0  0  0  0  0  0  0  0  0  0  0
   17.7087  -10.0958    0.0000 C   0  0  0  0  0  0  0  0  0  0  0  0
   17.0486  -11.2391    0.0000 C   0  0  0  0  0  0  0  0  0  0  0  0
   16.8150   -9.1090    0.0000 C   0  0  0  0  0  0  0  0  0  0  0  0
   15.6036   -9.6478    0.0000 C   0  0  0  0  0  0  0  0  0  0  0  0
   15.7429  -10.9659    0.0000 C   0  0  0  0  0  0  0  0  0  0  0  0
   17.0954   -7.8078    0.0000 O   0  0  0  0  0  0  0  0  0  0  0  0
   14.7606  -11.8519    0.0000 O   0  0  0  0  0  0  0  0  0  0  0  0
   15.0728   -8.4407    0.0000 O   0  5  0  0  0  0  0  0  0  0  0  0
  1  2  1  0  0  0  0
  1  3  2  0  0  0  0
  2  4  2  0  0  0  0
  3  5  1  0  0  0  0
  4  6  1  0  0  0  0
  5  6  2  0  0  0  0
  5  7  1  0  0  0  0
  7  8  1  0  0  0  0
  6  9  1  0  0  0  0
  8  9  1  0  0  0  0
  7 10  2  0  0  0  0
  9 11  2  0  0  0  0
  8 12  1  0  0  0  0
 13 14  1  0  0  0  0
 13 15  2  0  0  0  0
 14 16  2  0  0  0  0
 15 17  1  0  0  0  0
 16 18  1  0  0  0  0
 17 18  2  0  0  0  0
 17 19  1  0  0  0  0
 19 20  1  0  0  0  0
 18 21  1  0  0  0  0
 20 21  1  0  0  0  0
 19 22  2  0  0  0  0
 21 23  2  0  0  0  0
 20 24  1  0  0  0  0
  8 20  1  0  0  0  0
M  CHG  2  12  -1  24  -1
M  END
$$$$
