
  ACD/LABS05232609382D

  1  0  0  0  0  0  0  0  0  0  2 V2000
   14.3255   -6.2814    0.0000 Ba  0  2  0  0  0  0  0  0  0  0  0  0
M  CHG  1   1   2
M  END
$$$$

  ACD/LABS05232609382D

  6  5  0  0  0  0  0  0  0  0  2 V2000
   16.0361   -8.1402    0.0000 C   0  0  0  0  0  0  0  0  0  0  0  0
   17.4623   -8.1402    0.0000 C   0  0  0  0  0  0  0  0  0  0  0  0
   18.1753   -6.9052    0.0000 O   0  0  0  0  0  0  0  0  0  0  0  0
   18.1753   -9.3753    0.0000 O   0  5  0  0  0  0  0  0  0  0  0  0
   15.3230   -9.3753    0.0000 C   0  0  0  0  0  0  0  0  0  0  0  0
   13.8969   -9.3753    0.0000 C   0  0  0  0  0  0  0  0  0  0  0  0
  1  2  1  0  0  0  0
  2  3  2  0  0  0  0
  2  4  1  0  0  0  0
  1  5  1  0  0  0  0
  5  6  1  0  0  0  0
M  CHG  1   4  -1
M  END
$$$$

  ACD/LABS05232609382D

  6  5  0  0  0  0  0  0  0  0  2 V2000
   15.6355  -12.0501    0.0000 C   0  0  0  0  0  0  0  0  0  0  0  0
   17.0617  -12.0501    0.0000 C   0  0  0  0  0  0  0  0  0  0  0  0
   17.7747  -10.8150    0.0000 O   0  0  0  0  0  0  0  0  0  0  0  0
   17.7747  -13.2852    0.0000 O   0  5  0  0  0  0  0  0  0  0  0  0
   14.9224  -13.2852    0.0000 C   0  0  0  0  0  0  0  0  0  0  0  0
   13.4963  -13.2852    0.0000 C   0  0  0  0  0  0  0  0  0  0  0  0
  1  2  1  0  0  0  0
  2  3  2  0  0  0  0
  2  4  1  0  0  0  0
  1  5  1  0  0  0  0
  5  6  1  0  0  0  0
M  CHG  1   4  -1
M  END
$$$$
