
  ACD/LABS05232609172D

  1  0  0  0  0  0  0  0  0  0  2 V2000
   14.2615   -5.9930    0.0000 Ba  0  2  0  0  0  0  0  0  0  0  0  0
M  CHG  1   1   2
M  END
$$$$

  ACD/LABS05232609172D

  8  7  0  0  0  0  0  0  0  0  2 V2000
   18.2702   -6.3496    0.0000 C   0  0  0  0  0  0  0  0  0  0  0  0
   18.2702   -4.9555    0.0000 O   0  0  0  0  0  0  0  0  0  0  0  0
   17.0629   -7.0466    0.0000 O   0  5  0  0  0  0  0  0  0  0  0  0
   19.2930   -6.4577    0.0000 C   0  0  0  0  0  0  0  0  0  0  0  0
   19.8058   -7.3070    0.0000 C   0  0  0  0  0  0  0  0  0  0  0  0
   19.3892   -8.3005    0.0000 C   0  0  0  0  0  0  0  0  0  0  0  0
   18.1233   -8.9895    0.0000 O   0  5  0  0  0  0  0  0  0  0  0  0
   20.5429   -8.9414    0.0000 O   0  0  0  0  0  0  0  0  0  0  0  0
  1  2  2  0  0  0  0
  1  3  1  0  0  0  0
  1  4  1  0  0  0  0
  4  5  1  0  0  0  0
  6  7  1  0  0  0  0
  6  8  2  0  0  0  0
  5  6  1  0  0  0  0
M  CHG  2   3  -1   7  -1
M  END
$$$$
