
  ACD/LABS05232609462D

  1  0  0  0  0  0  0  0  0  0  2 V2000
   14.2615   -5.9930    0.0000 Ba  0  2  0  0  0  0  0  0  0  0  0  0
M  CHG  1   1   2
M  END
$$$$

  ACD/LABS05232609462D

  9  9  0  0  0  0  0  0  0  0  2 V2000
   18.2702   -6.3496    0.0000 C   0  0  0  0  0  0  0  0  0  0  0  0
   18.2702   -4.9555    0.0000 O   0  0  0  0  0  0  0  0  0  0  0  0
   17.0629   -7.0466    0.0000 O   0  5  0  0  0  0  0  0  0  0  0  0
   19.4776   -7.0466    0.0000 C   0  0  0  0  0  0  0  0  0  0  0  0
   20.6849   -6.3496    0.0000 C   0  0  0  0  0  0  0  0  0  0  0  0
   19.4776   -8.4408    0.0000 C   0  0  0  0  0  0  0  0  0  0  0  0
   21.8923   -7.0467    0.0000 C   0  0  0  0  0  0  0  0  0  0  0  0
   20.6849   -9.1378    0.0000 C   0  0  0  0  0  0  0  0  0  0  0  0
   21.8922   -8.4408    0.0000 C   0  0  0  0  0  0  0  0  0  0  0  0
  1  2  2  0  0  0  0
  1  3  1  0  0  0  0
  4  5  1  0  0  0  0
  4  6  2  0  0  0  0
  5  7  2  0  0  0  0
  6  8  1  0  0  0  0
  7  9  1  0  0  0  0
  8  9  2  0  0  0  0
  1  4  1  0  0  0  0
M  CHG  1   3  -1
M  END
$$$$

  ACD/LABS05232609462D

  9  9  0  0  0  0  0  0  0  0  2 V2000
   14.2161   -9.1538    0.0000 C   0  0  0  0  0  0  0  0  0  0  0  0
   14.2161   -7.7597    0.0000 O   0  0  0  0  0  0  0  0  0  0  0  0
   13.0088   -9.8508    0.0000 O   0  5  0  0  0  0  0  0  0  0  0  0
   15.4235   -9.8508    0.0000 C   0  0  0  0  0  0  0  0  0  0  0  0
   16.6308   -9.1538    0.0000 C   0  0  0  0  0  0  0  0  0  0  0  0
   15.4235  -11.2450    0.0000 C   0  0  0  0  0  0  0  0  0  0  0  0
   17.8382   -9.8509    0.0000 C   0  0  0  0  0  0  0  0  0  0  0  0
   16.6308  -11.9420    0.0000 C   0  0  0  0  0  0  0  0  0  0  0  0
   17.8381  -11.2450    0.0000 C   0  0  0  0  0  0  0  0  0  0  0  0
  1  2  2  0  0  0  0
  1  3  1  0  0  0  0
  4  5  1  0  0  0  0
  4  6  2  0  0  0  0
  5  7  2  0  0  0  0
  6  8  1  0  0  0  0
  7  9  1  0  0  0  0
  8  9  2  0  0  0  0
  1  4  1  0  0  0  0
M  CHG  1   3  -1
M  END
$$$$

  ACD/LABS05232609462D

  1  0  0  0  0  0  0  0  0  0  1 V2000
   10.2394   -5.3360    0.0000 O   0  0  0  0  0  0  0  0  0  0  0  0
M  END
$$$$

  ACD/LABS05232609462D

  1  0  0  0  0  0  0  0  0  0  1 V2000
    9.9510   -7.0025    0.0000 O   0  0  0  0  0  0  0  0  0  0  0  0
M  END
$$$$
