
  ACD/LABS05232609222D

  1  0  0  0  0  0  0  0  0  0  2 V2000
   14.2615   -5.9930    0.0000 Ba  0  2  0  0  0  0  0  0  0  0  0  0
M  CHG  1   1   2
M  END
$$$$

  ACD/LABS05232609222D

 10  9  0  0  0  0  0  0  0  0  2 V2000
   18.5328   -4.5669    0.0000 C   0  0  0  0  0  0  0  0  0  0  0  0
   19.6846   -3.9019    0.0000 C   0  0  0  0  0  0  0  0  0  0  0  0
   19.6846   -2.5719    0.0000 O   0  0  0  0  0  0  0  0  0  0  0  0
   20.8365   -4.5669    0.0000 O   0  5  0  0  0  0  0  0  0  0  0  0
   18.5328   -5.8969    0.0000 C   0  0  0  0  0  0  0  0  0  0  0  0
   19.6846   -6.5619    0.0000 C   0  0  0  0  0  0  0  0  0  0  0  0
   20.8365   -5.8969    0.0000 O   0  0  0  0  0  0  0  0  0  0  0  0
   19.6846   -7.8919    0.0000 O   0  5  0  0  0  0  0  0  0  0  0  0
   17.3810   -3.9019    0.0000 O   0  0  0  0  0  0  0  0  0  0  0  0
   17.3810   -6.5619    0.0000 O   0  0  0  0  0  0  0  0  0  0  0  0
  1  2  1  0  0  0  0
  2  3  2  0  0  0  0
  2  4  1  0  0  0  0
  5  6  1  0  0  0  0
  6  7  2  0  0  0  0
  6  8  1  0  0  0  0
  1  5  1  0  0  0  0
  1  9  1  0  0  0  0
  5 10  1  0  0  0  0
M  CHG  2   4  -1   8  -1
M  END
$$$$

  ACD/LABS05232609222D

  1  0  0  0  0  0  0  0  0  0  1 V2000
   24.1323   -5.2719    0.0000 O   0  0  0  0  0  0  0  0  0  0  0  0
M  END
$$$$
