
  ACD/LABS05232610012D

  1  0  0  0  0  0  0  0  0  0  2 V2000
   18.1874   -6.4737    0.0000 Ba  0  2  0  0  0  0  0  0  0  0  0  0
M  CHG  1   1   2
M  END
$$$$

  ACD/LABS05232610012D

  1  0  0  0  0  0  0  0  0  0  2 V2000
   20.9916   -6.4737    0.0000 Ba  0  2  0  0  0  0  0  0  0  0  0  0
M  CHG  1   1   2
M  END
$$$$

  ACD/LABS05232610012D

  1  0  0  0  0  0  0  0  0  0  2 V2000
   23.5875   -6.4577    0.0000 Ba  0  2  0  0  0  0  0  0  0  0  0  0
M  CHG  1   1   2
M  END
$$$$

  ACD/LABS05232610012D

  1  0  0  0  0  0  0  0  0  0  1 V2000
   19.3892   -9.9670    0.0000 Cu  0  0  0  0  0  0  0  0  0  0  0  0
M  END
$$$$

  ACD/LABS05232610012D

  1  0  0  0  0  0  0  0  0  0  1 V2000
   23.2510   -9.9510    0.0000 Cu  0  0  0  0  0  0  0  0  0  0  0  0
M  END
$$$$

  ACD/LABS05232610012D

  8  8  0  0  0  0  0  0  0  0  2 V2000
   19.2751  -12.6991    0.0000 C   0  0  0  0  0  0  0  0  0  0  0  0
   19.2751  -14.0291    0.0000 C   0  0  0  0  0  0  0  0  0  0  0  0
   18.1232  -12.0341    0.0000 C   0  0  0  0  0  0  0  0  0  0  0  0
   18.1232  -14.6941    0.0000 C   0  0  0  0  0  0  0  0  0  0  0  0
   16.9714  -12.6991    0.0000 C   0  0  0  0  0  0  0  0  0  0  0  0
   16.9714  -14.0291    0.0000 C   0  0  0  0  0  0  0  0  0  0  0  0
   20.4307  -14.7101    0.0000 C   0  0  0  0  0  0  0  0  0  0  0  0
   21.5845  -15.3671    0.0000 C   0  5  0  0  0  0  0  0  0  0  0  0
  1  2  1  0  0  0  0
  1  3  2  0  0  0  0
  2  4  2  0  0  0  0
  3  5  1  0  0  0  0
  4  6  1  0  0  0  0
  5  6  2  0  0  0  0
  2  7  1  0  0  0  0
  7  8  3  0  0  0  0
M  CHG  1   8  -1
M  END
$$$$

  ACD/LABS05232610012D

  8  8  0  0  0  0  0  0  0  0  2 V2000
   25.9732  -12.5068    0.0000 C   0  0  0  0  0  0  0  0  0  0  0  0
   25.9732  -13.8368    0.0000 C   0  0  0  0  0  0  0  0  0  0  0  0
   24.8213  -11.8418    0.0000 C   0  0  0  0  0  0  0  0  0  0  0  0
   24.8213  -14.5018    0.0000 C   0  0  0  0  0  0  0  0  0  0  0  0
   23.6695  -12.5068    0.0000 C   0  0  0  0  0  0  0  0  0  0  0  0
   23.6695  -13.8368    0.0000 C   0  0  0  0  0  0  0  0  0  0  0  0
   27.1288  -14.5178    0.0000 C   0  0  0  0  0  0  0  0  0  0  0  0
   28.2825  -15.1748    0.0000 C   0  5  0  0  0  0  0  0  0  0  0  0
  1  2  1  0  0  0  0
  1  3  2  0  0  0  0
  2  4  2  0  0  0  0
  3  5  1  0  0  0  0
  4  6  1  0  0  0  0
  5  6  2  0  0  0  0
  2  7  1  0  0  0  0
  7  8  3  0  0  0  0
M  CHG  1   8  -1
M  END
$$$$

  ACD/LABS05232610012D

  8  8  0  0  0  0  0  0  0  0  2 V2000
   32.2706  -12.5228    0.0000 C   0  0  0  0  0  0  0  0  0  0  0  0
   32.2706  -13.8528    0.0000 C   0  0  0  0  0  0  0  0  0  0  0  0
   31.1187  -11.8578    0.0000 C   0  0  0  0  0  0  0  0  0  0  0  0
   31.1187  -14.5178    0.0000 C   0  0  0  0  0  0  0  0  0  0  0  0
   29.9670  -12.5228    0.0000 C   0  0  0  0  0  0  0  0  0  0  0  0
   29.9670  -13.8528    0.0000 C   0  0  0  0  0  0  0  0  0  0  0  0
   33.4263  -14.5339    0.0000 C   0  0  0  0  0  0  0  0  0  0  0  0
   34.5800  -15.1908    0.0000 C   0  5  0  0  0  0  0  0  0  0  0  0
  1  2  1  0  0  0  0
  1  3  2  0  0  0  0
  2  4  2  0  0  0  0
  3  5  1  0  0  0  0
  4  6  1  0  0  0  0
  5  6  2  0  0  0  0
  2  7  1  0  0  0  0
  7  8  3  0  0  0  0
M  CHG  1   8  -1
M  END
$$$$

  ACD/LABS05232610012D

  8  8  0  0  0  0  0  0  0  0  2 V2000
   19.1790  -16.3686    0.0000 C   0  0  0  0  0  0  0  0  0  0  0  0
   19.1790  -17.6986    0.0000 C   0  0  0  0  0  0  0  0  0  0  0  0
   18.0271  -15.7036    0.0000 C   0  0  0  0  0  0  0  0  0  0  0  0
   18.0271  -18.3636    0.0000 C   0  0  0  0  0  0  0  0  0  0  0  0
   16.8753  -16.3686    0.0000 C   0  0  0  0  0  0  0  0  0  0  0  0
   16.8753  -17.6986    0.0000 C   0  0  0  0  0  0  0  0  0  0  0  0
   20.3346  -18.3796    0.0000 C   0  0  0  0  0  0  0  0  0  0  0  0
   21.4883  -19.0366    0.0000 C   0  5  0  0  0  0  0  0  0  0  0  0
  1  2  1  0  0  0  0
  1  3  2  0  0  0  0
  2  4  2  0  0  0  0
  3  5  1  0  0  0  0
  4  6  1  0  0  0  0
  5  6  2  0  0  0  0
  2  7  1  0  0  0  0
  7  8  3  0  0  0  0
M  CHG  1   8  -1
M  END
$$$$

  ACD/LABS05232610012D

  8  8  0  0  0  0  0  0  0  0  2 V2000
   25.8290  -16.5128    0.0000 C   0  0  0  0  0  0  0  0  0  0  0  0
   25.8290  -17.8428    0.0000 C   0  0  0  0  0  0  0  0  0  0  0  0
   24.6771  -15.8478    0.0000 C   0  0  0  0  0  0  0  0  0  0  0  0
   24.6771  -18.5078    0.0000 C   0  0  0  0  0  0  0  0  0  0  0  0
   23.5253  -16.5128    0.0000 C   0  0  0  0  0  0  0  0  0  0  0  0
   23.5253  -17.8428    0.0000 C   0  0  0  0  0  0  0  0  0  0  0  0
   26.9846  -18.5239    0.0000 C   0  0  0  0  0  0  0  0  0  0  0  0
   28.1383  -19.1808    0.0000 C   0  5  0  0  0  0  0  0  0  0  0  0
  1  2  1  0  0  0  0
  1  3  2  0  0  0  0
  2  4  2  0  0  0  0
  3  5  1  0  0  0  0
  4  6  1  0  0  0  0
  5  6  2  0  0  0  0
  2  7  1  0  0  0  0
  7  8  3  0  0  0  0
M  CHG  1   8  -1
M  END
$$$$

  ACD/LABS05232610012D

  8  8  0  0  0  0  0  0  0  0  2 V2000
   32.4309  -16.5128    0.0000 C   0  0  0  0  0  0  0  0  0  0  0  0
   32.4309  -17.8428    0.0000 C   0  0  0  0  0  0  0  0  0  0  0  0
   31.2790  -15.8478    0.0000 C   0  0  0  0  0  0  0  0  0  0  0  0
   31.2790  -18.5078    0.0000 C   0  0  0  0  0  0  0  0  0  0  0  0
   30.1272  -16.5128    0.0000 C   0  0  0  0  0  0  0  0  0  0  0  0
   30.1272  -17.8428    0.0000 C   0  0  0  0  0  0  0  0  0  0  0  0
   33.5865  -18.5239    0.0000 C   0  0  0  0  0  0  0  0  0  0  0  0
   34.7403  -19.1808    0.0000 C   0  5  0  0  0  0  0  0  0  0  0  0
  1  2  1  0  0  0  0
  1  3  2  0  0  0  0
  2  4  2  0  0  0  0
  3  5  1  0  0  0  0
  4  6  1  0  0  0  0
  5  6  2  0  0  0  0
  2  7  1  0  0  0  0
  7  8  3  0  0  0  0
M  CHG  1   8  -1
M  END
$$$$
