
  ACD/LABS05232609292D

  1  0  0  0  0  0  0  0  0  0  2 V2000
   14.3255   -6.2814    0.0000 Ba  0  2  0  0  0  0  0  0  0  0  0  0
M  CHG  1   1   2
M  END
$$$$

  ACD/LABS05232609292D

  1  0  0  0  0  0  0  0  0  0  2 V2000
   20.0462   -6.1212    0.0000 Pd  0  2  0  0  0  0  0  0  0  0  0  0
M  CHG  1   1   2
M  END
$$$$

  ACD/LABS05232609292D

  2  1  0  0  0  0  0  0  0  0  2 V2000
   19.8378   -3.2689    0.0000 C   0  5  0  0  0  0  0  0  0  0  0  0
   22.4978   -3.2689    0.0000 N   0  0  0  0  0  0  0  0  0  0  0  0
  1  2  3  0  0  0  0
M  CHG  1   1  -1
M  END
$$$$

  ACD/LABS05232609292D

  2  1  0  0  0  0  0  0  0  0  2 V2000
   23.5234   -5.4482    0.0000 C   0  5  0  0  0  0  0  0  0  0  0  0
   26.1834   -5.4482    0.0000 N   0  0  0  0  0  0  0  0  0  0  0  0
  1  2  3  0  0  0  0
M  CHG  1   1  -1
M  END
$$$$

  ACD/LABS05232609292D

  2  1  0  0  0  0  0  0  0  0  2 V2000
   22.0492   -8.5729    0.0000 C   0  5  0  0  0  0  0  0  0  0  0  0
   24.7092   -8.5729    0.0000 N   0  0  0  0  0  0  0  0  0  0  0  0
  1  2  3  0  0  0  0
M  CHG  1   1  -1
M  END
$$$$

  ACD/LABS05232609292D

  2  1  0  0  0  0  0  0  0  0  2 V2000
   16.4728   -7.9159    0.0000 C   0  5  0  0  0  0  0  0  0  0  0  0
   19.1328   -7.9159    0.0000 N   0  0  0  0  0  0  0  0  0  0  0  0
  1  2  3  0  0  0  0
M  CHG  1   1  -1
M  END
$$$$

  ACD/LABS05232609292D

  1  0  0  0  0  0  0  0  0  0  1 V2000
   10.8643   -2.8683    0.0000 O   0  0  0  0  0  0  0  0  0  0  0  0
M  END
$$$$

  ACD/LABS05232609292D

  1  0  0  0  0  0  0  0  0  0  1 V2000
   10.7201   -4.4547    0.0000 O   0  0  0  0  0  0  0  0  0  0  0  0
M  END
$$$$

  ACD/LABS05232609292D

  1  0  0  0  0  0  0  0  0  0  1 V2000
   10.5278   -5.8969    0.0000 O   0  0  0  0  0  0  0  0  0  0  0  0
M  END
$$$$

  ACD/LABS05232609292D

  1  0  0  0  0  0  0  0  0  0  1 V2000
   10.4637   -7.4031    0.0000 O   0  0  0  0  0  0  0  0  0  0  0  0
M  END
$$$$
