
  ACD/LABS05232612122D

  4  3  0  0  0  0  0  0  0  0  1 V2000
   22.1453   -7.8999    0.0000 B   0  0  0  0  0  0  0  0  0  0  0  0
   22.3216   -6.3936    0.0000 Br  0  0  0  0  0  0  0  0  0  0  0  0
   23.2349   -9.0376    0.0000 Br  0  0  0  0  0  0  0  0  0  0  0  0
   20.5269   -8.5729    0.0000 Br  0  0  0  0  0  0  0  0  0  0  0  0
  1  2  1  0  0  0  0
  1  3  1  0  0  0  0
  1  4  1  0  0  0  0
M  END
$$$$
