
  ACD/LABS05232610212D

  1  0  0  0  0  0  0  0  0  0  2 V2000
   20.4948   -7.0346    0.0000 Be  0  2  0  0  0  0  0  0  0  0  0  0
M  CHG  1   1   2
M  END
$$$$

  ACD/LABS05232610212D

  7  6  0  0  0  0  0  0  0  0  2 V2000
   10.9002   -8.0481    0.0000 C   0  0  0  0  0  0  0  0  0  0  0  0
   12.0520   -7.3831    0.0000 C   0  0  0  0  0  0  0  0  0  0  0  0
   13.2039   -8.0481    0.0000 C   0  0  0  0  0  0  0  0  0  0  0  0
   14.3557   -7.3831    0.0000 C   0  0  0  0  0  0  0  0  0  0  0  0
   15.5075   -8.0481    0.0000 C   0  0  0  0  0  0  0  0  0  0  0  0
   14.3557   -6.0531    0.0000 O   0  5  0  0  0  0  0  0  0  0  0  0
   12.0520   -6.0531    0.0000 O   0  0  0  0  0  0  0  0  0  0  0  0
  1  2  1  0  0  0  0
  2  3  1  0  0  0  0
  3  4  2  0  0  0  0
  4  5  1  0  0  0  0
  4  6  1  0  0  0  0
  2  7  2  0  0  0  0
M  CHG  1   6  -1
M  END
$$$$

  ACD/LABS05232610212D

  7  6  0  0  0  0  0  0  0  0  2 V2000
   24.0881   -7.9680    0.0000 C   0  0  0  0  0  0  0  0  0  0  0  0
   25.2399   -7.3030    0.0000 C   0  0  0  0  0  0  0  0  0  0  0  0
   26.3917   -7.9680    0.0000 C   0  0  0  0  0  0  0  0  0  0  0  0
   27.5435   -7.3030    0.0000 C   0  0  0  0  0  0  0  0  0  0  0  0
   28.6953   -7.9680    0.0000 C   0  0  0  0  0  0  0  0  0  0  0  0
   27.5435   -5.9730    0.0000 O   0  5  0  0  0  0  0  0  0  0  0  0
   25.2399   -5.9730    0.0000 O   0  0  0  0  0  0  0  0  0  0  0  0
  1  2  1  0  0  0  0
  2  3  1  0  0  0  0
  3  4  2  0  0  0  0
  4  5  1  0  0  0  0
  4  6  1  0  0  0  0
  2  7  2  0  0  0  0
M  CHG  1   6  -1
M  END
$$$$
