
  ACD/LABS05232610142D

  1  0  0  0  0  0  0  0  0  0  2 V2000
   20.4948   -7.0346    0.0000 Be  0  2  0  0  0  0  0  0  0  0  0  0
M  CHG  1   1   2
M  END
$$$$

  ACD/LABS05232610142D

  4  3  0  0  0  0  0  0  0  0  2 V2000
   14.6460   -6.0090    0.0000 N   0  3  0  0  0  0  0  0  0  0  0  0
   15.7998   -6.6821    0.0000 O   0  0  0  0  0  0  0  0  0  0  0  0
   14.6460   -4.6790    0.0000 O   0  5  0  0  0  0  0  0  0  0  0  0
   13.4923   -6.6660    0.0000 O   0  5  0  0  0  0  0  0  0  0  0  0
  1  2  2  0  0  0  0
  1  3  1  0  0  0  0
  1  4  1  0  0  0  0
M  CHG  3   1   1   3  -1   4  -1
M  END
$$$$

  ACD/LABS05232610142D

  4  3  0  0  0  0  0  0  0  0  2 V2000
   14.6621   -9.2619    0.0000 N   0  3  0  0  0  0  0  0  0  0  0  0
   15.8158   -9.9349    0.0000 O   0  0  0  0  0  0  0  0  0  0  0  0
   14.6621   -7.9319    0.0000 O   0  5  0  0  0  0  0  0  0  0  0  0
   13.5083   -9.9189    0.0000 O   0  5  0  0  0  0  0  0  0  0  0  0
  1  2  2  0  0  0  0
  1  3  1  0  0  0  0
  1  4  1  0  0  0  0
M  CHG  3   1   1   3  -1   4  -1
M  END
$$$$
