
  ACD/LABS05232610082D

  1  0  0  0  0  0  0  0  0  0  2 V2000
   20.4948   -7.0346    0.0000 Be  0  2  0  0  0  0  0  0  0  0  0  0
M  CHG  1   1   2
M  END
$$$$

  ACD/LABS05232610082D

  1  0  0  0  0  0  0  0  0  0  2 V2000
   24.2445   -6.9384    0.0000 O   0  5  0  0  0  0  0  0  0  0  0  0
M  CHG  1   1  -1
M  END
$$$$

  ACD/LABS05232610082D

  1  0  0  0  0  0  0  0  0  0  2 V2000
   23.8439   -8.5729    0.0000 O   0  5  0  0  0  0  0  0  0  0  0  0
M  CHG  1   1  -1
M  END
$$$$
