
  ACD/LABS05242623172D

  8  8  0  0  0  0  0  0  0  0  1 V2000
   23.8980   -4.1182    0.0000 O   0  0  0  0  0  0  0  0  0  0  0  0
   22.7462   -4.7832    0.0000 C   0  0  0  0  0  0  0  0  0  0  0  0
   23.8980   -6.7782    0.0000 C   0  0  0  0  0  0  0  0  0  0  0  0
   23.8980   -8.1082    0.0000 C   0  0  0  0  0  0  0  0  0  0  0  0
   22.7462   -6.1132    0.0000 C   0  0  0  0  0  0  0  0  0  0  0  0
   22.7462   -8.7732    0.0000 C   0  0  0  0  0  0  0  0  0  0  0  0
   21.5944   -6.7782    0.0000 C   0  0  0  0  0  0  0  0  0  0  0  0
   21.5944   -8.1082    0.0000 C   0  0  0  0  0  0  0  0  0  0  0  0
  1  2  1  0  0  0  0
  3  4  1  0  0  0  0
  3  5  2  0  0  0  0
  4  6  2  0  0  0  0
  5  7  1  0  0  0  0
  6  8  1  0  0  0  0
  7  8  2  0  0  0  0
  2  5  1  0  0  0  0
M  END
$$$$
