
  ACD/LABS05242622582D

  9  9  0  0  0  0  0  0  0  0  1 V2000
   19.1618   -7.0118    0.0000 C   0  0  0  0  0  0  0  0  0  0  0  0
   19.1618   -8.3487    0.0000 C   0  0  0  0  0  0  0  0  0  0  0  0
   18.0121   -6.3523    0.0000 C   0  0  0  0  0  0  0  0  0  0  0  0
   18.0121   -9.0174    0.0000 C   0  0  0  0  0  0  0  0  0  0  0  0
   16.8623   -7.0118    0.0000 C   0  0  0  0  0  0  0  0  0  0  0  0
   16.8623   -8.3487    0.0000 C   0  0  0  0  0  0  0  0  0  0  0  0
   18.0121   -5.0154    0.0000 C   0  0  0  0  0  0  0  0  0  0  0  0
   19.1618   -4.3467    0.0000 O   0  0  0  0  0  0  0  0  0  0  0  0
   16.8623   -4.3467    0.0000 N   0  0  0  0  0  0  0  0  0  0  0  0
  1  2  1  0  0  0  0
  1  3  2  0  0  0  0
  2  4  2  0  0  0  0
  3  5  1  0  0  0  0
  4  6  1  0  0  0  0
  5  6  2  0  0  0  0
  3  7  1  0  0  0  0
  7  8  2  0  0  0  0
  7  9  1  0  0  0  0
M  END
$$$$
