
  ACD/LABS05242623122D

 14 15  0  0  0  0  0  0  0  0  1 V2000
   22.2966   -8.9237    0.0000 C   0  0  0  0  0  0  0  0  0  0  0  0
   22.2966  -10.2537    0.0000 C   0  0  0  0  0  0  0  0  0  0  0  0
   21.1448   -8.2587    0.0000 C   0  0  0  0  0  0  0  0  0  0  0  0
   21.1448  -10.9187    0.0000 C   0  0  0  0  0  0  0  0  0  0  0  0
   19.9929   -8.9237    0.0000 C   0  0  0  0  0  0  0  0  0  0  0  0
   19.9929  -10.2537    0.0000 C   0  0  0  0  0  0  0  0  0  0  0  0
   21.1518   -6.9224    0.0000 C   0  0  0  0  0  0  0  0  0  0  0  0
   22.3071   -6.2635    0.0000 C   0  0  0  0  0  0  0  0  0  0  0  0
   22.3142   -4.9335    0.0000 C   0  0  0  0  0  0  0  0  0  0  0  0
   23.4555   -6.9346    0.0000 C   0  0  0  0  0  0  0  0  0  0  0  0
   23.4696   -4.2746    0.0000 C   0  0  0  0  0  0  0  0  0  0  0  0
   24.6108   -6.2757    0.0000 C   0  0  0  0  0  0  0  0  0  0  0  0
   24.6178   -4.9457    0.0000 C   0  0  0  0  0  0  0  0  0  0  0  0
   19.9981   -6.2654    0.0000 O   0  0  0  0  0  0  0  0  0  0  0  0
  1  2  1  0  0  0  0
  1  3  2  0  0  0  0
  2  4  2  0  0  0  0
  3  5  1  0  0  0  0
  4  6  1  0  0  0  0
  5  6  2  0  0  0  0
  3  7  1  0  0  0  0
  8  9  1  0  0  0  0
  8 10  2  0  0  0  0
  9 11  2  0  0  0  0
 10 12  1  0  0  0  0
 11 13  1  0  0  0  0
 12 13  2  0  0  0  0
  7  8  1  0  0  0  0
  7 14  2  0  0  0  0
M  END
$$$$
