
  ACD/LABS05242623162D

 11 11  0  0  0  0  0  0  0  0  1 V2000
   23.8980   -2.7882    0.0000 C   0  0  0  0  0  0  0  0  0  0  0  0
   22.7462   -2.1232    0.0000 O   0  0  0  0  0  0  0  0  0  0  0  0
   25.0498   -2.1232    0.0000 C   0  0  0  0  0  0  0  0  0  0  0  0
   23.8980   -4.1182    0.0000 O   0  0  0  0  0  0  0  0  0  0  0  0
   22.7462   -4.7832    0.0000 C   0  0  0  0  0  0  0  0  0  0  0  0
   23.8980   -6.7782    0.0000 C   0  0  0  0  0  0  0  0  0  0  0  0
   23.8980   -8.1082    0.0000 C   0  0  0  0  0  0  0  0  0  0  0  0
   22.7462   -6.1132    0.0000 C   0  0  0  0  0  0  0  0  0  0  0  0
   22.7462   -8.7732    0.0000 C   0  0  0  0  0  0  0  0  0  0  0  0
   21.5944   -6.7782    0.0000 C   0  0  0  0  0  0  0  0  0  0  0  0
   21.5944   -8.1082    0.0000 C   0  0  0  0  0  0  0  0  0  0  0  0
  1  2  2  0  0  0  0
  1  3  1  0  0  0  0
  1  4  1  0  0  0  0
  4  5  1  0  0  0  0
  6  7  1  0  0  0  0
  6  8  2  0  0  0  0
  7  9  2  0  0  0  0
  8 10  1  0  0  0  0
  9 11  1  0  0  0  0
 10 11  2  0  0  0  0
  5  8  1  0  0  0  0
M  END
$$$$
