
  ACD/LABS05242623102D

  8  8  0  0  0  0  0  0  0  0  1 V2000
   22.2966   -8.9237    0.0000 C   0  0  0  0  0  0  0  0  0  0  0  0
   22.2966  -10.2537    0.0000 C   0  0  0  0  0  0  0  0  0  0  0  0
   21.1448   -8.2587    0.0000 C   0  0  0  0  0  0  0  0  0  0  0  0
   21.1448  -10.9187    0.0000 C   0  0  0  0  0  0  0  0  0  0  0  0
   19.9929   -8.9237    0.0000 C   0  0  0  0  0  0  0  0  0  0  0  0
   19.9929  -10.2537    0.0000 C   0  0  0  0  0  0  0  0  0  0  0  0
   21.1518   -6.9224    0.0000 C   0  0  0  0  0  0  0  0  0  0  0  0
   21.1518   -5.5924    0.0000 N   0  0  0  0  0  0  0  0  0  0  0  0
  1  2  1  0  0  0  0
  1  3  2  0  0  0  0
  2  4  2  0  0  0  0
  3  5  1  0  0  0  0
  4  6  1  0  0  0  0
  5  6  2  0  0  0  0
  3  7  1  0  0  0  0
  7  8  3  0  0  0  0
M  END
$$$$
