
  ACD/LABS05242623032D

  9  9  0  0  0  0  0  0  0  0  1 V2000
   19.1683   -7.0165    0.0000 C   0  0  0  0  0  0  0  0  0  0  0  0
   19.1683   -8.3465    0.0000 C   0  0  0  0  0  0  0  0  0  0  0  0
   18.0165   -6.3515    0.0000 C   0  0  0  0  0  0  0  0  0  0  0  0
   18.0165   -9.0115    0.0000 C   0  0  0  0  0  0  0  0  0  0  0  0
   16.8646   -7.0165    0.0000 C   0  0  0  0  0  0  0  0  0  0  0  0
   16.8646   -8.3465    0.0000 C   0  0  0  0  0  0  0  0  0  0  0  0
   20.3201   -6.3515    0.0000 C   0  0  0  0  0  0  0  0  0  0  0  0
   21.4719   -7.0165    0.0000 C   0  0  0  0  0  0  0  0  0  0  0  0
   22.6237   -7.6815    0.0000 N   0  0  0  0  0  0  0  0  0  0  0  0
  1  2  1  0  0  0  0
  1  3  2  0  0  0  0
  2  4  2  0  0  0  0
  3  5  1  0  0  0  0
  4  6  1  0  0  0  0
  5  6  2  0  0  0  0
  1  7  1  0  0  0  0
  7  8  1  0  0  0  0
  8  9  3  0  0  0  0
M  END
$$$$
