
  ACD/LABS05242623182D

 16 17  0  0  0  0  0  0  0  0  1 V2000
   26.1192   -6.3616    0.0000 O   0  0  0  0  0  0  0  0  0  0  0  0
   24.9674   -5.6966    0.0000 C   0  0  0  0  0  0  0  0  0  0  0  0
   23.8156   -7.6916    0.0000 C   0  0  0  0  0  0  0  0  0  0  0  0
   22.6638   -8.3566    0.0000 C   0  0  0  0  0  0  0  0  0  0  0  0
   23.8156   -6.3616    0.0000 C   0  0  0  0  0  0  0  0  0  0  0  0
   21.5120   -7.6916    0.0000 C   0  0  0  0  0  0  0  0  0  0  0  0
   22.6638   -5.6966    0.0000 C   0  0  0  0  0  0  0  0  0  0  0  0
   21.5120   -6.3616    0.0000 C   0  0  0  0  0  0  0  0  0  0  0  0
   27.2710   -5.6966    0.0000 C   0  0  0  0  0  0  0  0  0  0  0  0
   28.4228   -6.3616    0.0000 O   0  0  0  0  0  0  0  0  0  0  0  0
   27.2710   -4.3666    0.0000 C   0  0  0  0  0  0  0  0  0  0  0  0
   26.1192   -3.7016    0.0000 C   0  0  0  0  0  0  0  0  0  0  0  0
   28.4228   -3.7016    0.0000 C   0  0  0  0  0  0  0  0  0  0  0  0
   26.1192   -2.3716    0.0000 C   0  0  0  0  0  0  0  0  0  0  0  0
   28.4228   -2.3716    0.0000 C   0  0  0  0  0  0  0  0  0  0  0  0
   27.2710   -1.7066    0.0000 C   0  0  0  0  0  0  0  0  0  0  0  0
  1  2  1  0  0  0  0
  3  4  1  0  0  0  0
  3  5  2  0  0  0  0
  4  6  2  0  0  0  0
  5  7  1  0  0  0  0
  6  8  1  0  0  0  0
  7  8  2  0  0  0  0
  2  5  1  0  0  0  0
  1  9  1  0  0  0  0
  9 10  2  0  0  0  0
 11 12  1  0  0  0  0
 11 13  2  0  0  0  0
 12 14  2  0  0  0  0
 13 15  1  0  0  0  0
 14 16  1  0  0  0  0
 15 16  2  0  0  0  0
  9 11  1  0  0  0  0
M  END
$$$$
