
  ACD/LABS05242622572D

  8  8  0  0  0  0  0  0  0  0  1 V2000
   19.1629   -7.0146    0.0000 C   0  0  0  0  0  0  0  0  0  0  0  0
   19.1629   -8.3446    0.0000 C   0  0  0  0  0  0  0  0  0  0  0  0
   18.0111   -6.3496    0.0000 C   0  0  0  0  0  0  0  0  0  0  0  0
   18.0111   -9.0096    0.0000 C   0  0  0  0  0  0  0  0  0  0  0  0
   16.8593   -7.0146    0.0000 C   0  0  0  0  0  0  0  0  0  0  0  0
   16.8593   -8.3446    0.0000 C   0  0  0  0  0  0  0  0  0  0  0  0
   18.0111   -5.0195    0.0000 C   0  0  0  0  0  0  0  0  0  0  0  0
   16.8593   -4.3545    0.0000 O   0  0  0  0  0  0  0  0  0  0  0  0
  1  2  1  0  0  0  0
  1  3  2  0  0  0  0
  2  4  2  0  0  0  0
  3  5  1  0  0  0  0
  4  6  1  0  0  0  0
  5  6  2  0  0  0  0
  3  7  1  0  0  0  0
  7  8  2  0  0  0  0
M  END
$$$$
