
  ACD/LABS05242623092D

 16 17  0  0  0  0  0  0  0  0  1 V2000
   22.2966   -8.9237    0.0000 C   0  0  0  0  0  0  0  0  0  0  0  0
   22.2966  -10.2537    0.0000 C   0  0  0  0  0  0  0  0  0  0  0  0
   21.1448   -8.2587    0.0000 C   0  0  0  0  0  0  0  0  0  0  0  0
   21.1448  -10.9187    0.0000 C   0  0  0  0  0  0  0  0  0  0  0  0
   19.9929   -8.9237    0.0000 C   0  0  0  0  0  0  0  0  0  0  0  0
   19.9929  -10.2537    0.0000 C   0  0  0  0  0  0  0  0  0  0  0  0
   21.1448   -6.9287    0.0000 C   0  0  0  0  0  0  0  0  0  0  0  0
   19.9929   -6.2637    0.0000 O   0  0  0  0  0  0  0  0  0  0  0  0
   22.2966   -6.2637    0.0000 C   0  0  0  0  0  0  0  0  0  0  0  0
   23.4484   -6.9287    0.0000 O   0  0  0  0  0  0  0  0  0  0  0  0
   22.2966   -4.9337    0.0000 C   0  0  0  0  0  0  0  0  0  0  0  0
   21.1448   -4.2687    0.0000 C   0  0  0  0  0  0  0  0  0  0  0  0
   23.4484   -4.2687    0.0000 C   0  0  0  0  0  0  0  0  0  0  0  0
   21.1448   -2.9387    0.0000 C   0  0  0  0  0  0  0  0  0  0  0  0
   23.4484   -2.9387    0.0000 C   0  0  0  0  0  0  0  0  0  0  0  0
   22.2966   -2.2737    0.0000 C   0  0  0  0  0  0  0  0  0  0  0  0
  1  2  1  0  0  0  0
  1  3  2  0  0  0  0
  2  4  2  0  0  0  0
  3  5  1  0  0  0  0
  4  6  1  0  0  0  0
  5  6  2  0  0  0  0
  3  7  1  0  0  0  0
  7  8  2  0  0  0  0
  7  9  1  0  0  0  0
  9 10  2  0  0  0  0
 11 12  1  0  0  0  0
 11 13  2  0  0  0  0
 12 14  2  0  0  0  0
 13 15  1  0  0  0  0
 14 16  1  0  0  0  0
 15 16  2  0  0  0  0
  9 11  1  0  0  0  0
M  END
$$$$
