
  ACD/LABS05232610182D

  1  0  0  0  0  0  0  0  0  0  2 V2000
   20.4948   -7.0346    0.0000 Be  0  2  0  0  0  0  0  0  0  0  0  0
M  CHG  1   1   2
M  END
$$$$

  ACD/LABS05232610182D

  5  4  0  0  0  0  0  0  0  0  2 V2000
   14.1893   -6.7141    0.0000 S   0  0  0  0  0  0  0  0  0  0  0  0
   14.8543   -5.5623    0.0000 O   0  0  0  0  0  0  0  0  0  0  0  0
   15.3412   -7.3791    0.0000 O   0  0  0  0  0  0  0  0  0  0  0  0
   13.0375   -6.0491    0.0000 O   0  5  0  0  0  0  0  0  0  0  0  0
   13.5243   -7.8659    0.0000 O   0  5  0  0  0  0  0  0  0  0  0  0
  1  2  2  0  0  0  0
  1  3  2  0  0  0  0
  1  4  1  0  0  0  0
  1  5  1  0  0  0  0
M  CHG  2   4  -1   5  -1
M  END
$$$$
