
  ACD/LABS05232610392D

  1  0  0  0  0  0  0  0  0  0  2 V2000
   14.2615   -5.9930    0.0000 Be  0  2  0  0  0  0  0  0  0  0  0  0
M  CHG  1   1   2
M  END
$$$$

  ACD/LABS05232610392D

 12 12  0  0  0  0  0  0  0  0  2 V2000
   22.4799   -7.5073    0.0000 C   0  0  0  0  0  0  0  0  0  0  0  0
   22.4799   -8.8373    0.0000 C   0  0  0  0  0  0  0  0  0  0  0  0
   21.3280   -6.8423    0.0000 C   0  0  0  0  0  0  0  0  0  0  0  0
   21.3280   -9.5023    0.0000 C   0  0  0  0  0  0  0  0  0  0  0  0
   20.1762   -7.5073    0.0000 C   0  0  0  0  0  0  0  0  0  0  0  0
   20.1762   -8.8373    0.0000 C   0  0  0  0  0  0  0  0  0  0  0  0
   23.6355   -6.8583    0.0000 C   0  0  0  0  0  0  0  0  0  0  0  0
   23.6355   -5.5283    0.0000 O   0  0  0  0  0  0  0  0  0  0  0  0
   24.7893   -7.5313    0.0000 C   0  0  0  0  0  0  0  0  0  0  0  0
   25.9430   -6.8743    0.0000 C   0  0  0  0  0  0  0  0  0  0  0  0
   25.9430   -5.5443    0.0000 O   0  5  0  0  0  0  0  0  0  0  0  0
   27.0968   -7.5474    0.0000 C   0  0  0  0  0  0  0  0  0  0  0  0
  1  2  1  0  0  0  0
  1  3  2  0  0  0  0
  2  4  2  0  0  0  0
  3  5  1  0  0  0  0
  4  6  1  0  0  0  0
  5  6  2  0  0  0  0
  1  7  1  0  0  0  0
  7  8  2  0  0  0  0
  7  9  1  0  0  0  0
  9 10  2  0  0  0  0
 10 11  1  0  0  0  0
 10 12  1  0  0  0  0
M  CHG  1  11  -1
M  END
$$$$

  ACD/LABS05232610392D

 12 12  0  0  0  0  0  0  0  0  2 V2000
   13.2661  -10.2154    0.0000 C   0  0  0  0  0  0  0  0  0  0  0  0
   13.2661  -11.5454    0.0000 C   0  0  0  0  0  0  0  0  0  0  0  0
   12.1142   -9.5504    0.0000 C   0  0  0  0  0  0  0  0  0  0  0  0
   12.1142  -12.2104    0.0000 C   0  0  0  0  0  0  0  0  0  0  0  0
   10.9624  -10.2154    0.0000 C   0  0  0  0  0  0  0  0  0  0  0  0
   10.9624  -11.5454    0.0000 C   0  0  0  0  0  0  0  0  0  0  0  0
   14.4217   -9.5664    0.0000 C   0  0  0  0  0  0  0  0  0  0  0  0
   14.4217   -8.2364    0.0000 O   0  0  0  0  0  0  0  0  0  0  0  0
   15.5754  -10.2394    0.0000 C   0  0  0  0  0  0  0  0  0  0  0  0
   16.7292   -9.5824    0.0000 C   0  0  0  0  0  0  0  0  0  0  0  0
   16.7292   -8.2524    0.0000 O   0  5  0  0  0  0  0  0  0  0  0  0
   17.8829  -10.2554    0.0000 C   0  0  0  0  0  0  0  0  0  0  0  0
  1  2  1  0  0  0  0
  1  3  2  0  0  0  0
  2  4  2  0  0  0  0
  3  5  1  0  0  0  0
  4  6  1  0  0  0  0
  5  6  2  0  0  0  0
  1  7  1  0  0  0  0
  7  8  2  0  0  0  0
  7  9  1  0  0  0  0
  9 10  2  0  0  0  0
 10 11  1  0  0  0  0
 10 12  1  0  0  0  0
M  CHG  1  11  -1
M  END
$$$$
