
  ACD/LABS05232614532D

  4  3  0  0  0  0  0  0  0  0  1 V2000
   20.1743   -8.5368    0.0000 B   0  0  0  0  0  0  0  0  0  0  0  0
   21.3262   -9.2018    0.0000 F   0  0  0  0  0  0  0  0  0  0  0  0
   20.1743   -7.2068    0.0000 F   0  0  0  0  0  0  0  0  0  0  0  0
   19.0225   -9.2018    0.0000 F   0  0  0  0  0  0  0  0  0  0  0  0
  1  2  1  0  0  0  0
  1  3  1  0  0  0  0
  1  4  1  0  0  0  0
M  END
$$$$

  ACD/LABS05232614532D

  6  6  0  0  0  0  0  0  0  0  1 V2000
   26.0372   -5.4242    0.0000 C   0  0  0  0  0  0  0  0  0  0  0  0
   26.0372   -6.7542    0.0000 C   0  0  0  0  0  0  0  0  0  0  0  0
   24.8854   -4.7592    0.0000 C   0  0  0  0  0  0  0  0  0  0  0  0
   24.8854   -7.4192    0.0000 C   0  0  0  0  0  0  0  0  0  0  0  0
   23.7336   -5.4242    0.0000 C   0  0  0  0  0  0  0  0  0  0  0  0
   23.7336   -6.7542    0.0000 N   0  0  0  0  0  0  0  0  0  0  0  0
  1  2  1  0  0  0  0
  1  3  2  0  0  0  0
  2  4  2  0  0  0  0
  3  5  1  0  0  0  0
  4  6  1  0  0  0  0
  5  6  2  0  0  0  0
M  END
$$$$
