
  ACD/LABS05232614122D

  4  3  0  0  0  0  0  0  0  0  1 V2000
   21.5043   -7.0987    0.0000 O   0  0  0  0  0  0  0  0  0  0  0  0
   23.1388   -7.1467    0.0000 O   0  0  0  0  0  0  0  0  0  0  0  0
   23.9080   -8.3486    0.0000 C   0  0  0  0  0  0  0  0  0  0  0  0
   20.5429   -8.3005    0.0000 C   0  0  0  0  0  0  0  0  0  0  0  0
  1  2  1  0  0  0  0
  2  3  1  0  0  0  0
  1  4  1  0  0  0  0
M  END
$$$$

  ACD/LABS05232614122D

  4  3  0  0  0  0  0  0  0  0  1 V2000
   22.2735   -4.8072    0.0000 B   0  0  0  0  0  0  0  0  0  0  0  0
   23.6516   -5.5924    0.0000 F   0  0  0  0  0  0  0  0  0  0  0  0
   20.9595   -5.3040    0.0000 F   0  0  0  0  0  0  0  0  0  0  0  0
   22.4498   -3.3010    0.0000 F   0  0  0  0  0  0  0  0  0  0  0  0
  1  2  1  0  0  0  0
  1  3  1  0  0  0  0
  1  4  1  0  0  0  0
M  END
$$$$
