
  ACD/LABS05232615112D

  7  6  0  0  0  0  0  0  0  0  1 V2000
   22.1934   -7.4361    0.0000 O   0  0  0  0  0  0  0  0  0  0  0  0
   21.2497   -7.9809    0.0000 C   0  0  0  0  0  0  0  0  0  0  0  0
   20.3061   -7.4361    0.0000 C   0  0  0  0  0  0  0  0  0  0  0  0
   19.3624   -7.9809    0.0000 C   0  0  0  0  0  0  0  0  0  0  0  0
   23.1370   -7.9809    0.0000 C   0  0  0  0  0  0  0  0  0  0  0  0
   24.0807   -7.4361    0.0000 C   0  0  0  0  0  0  0  0  0  0  0  0
   25.0243   -7.9809    0.0000 C   0  0  0  0  0  0  0  0  0  0  0  0
  1  2  1  0  0  0  0
  2  3  1  0  0  0  0
  3  4  1  0  0  0  0
  1  5  1  0  0  0  0
  5  6  1  0  0  0  0
  6  7  1  0  0  0  0
M  END
$$$$

  ACD/LABS05232615112D

  4  3  0  0  0  0  0  0  0  0  1 V2000
   24.0362  -11.4773    0.0000 B   0  0  0  0  0  0  0  0  0  0  0  0
   24.0362  -10.3075    0.0000 F   0  0  0  0  0  0  0  0  0  0  0  0
   25.0492  -12.0621    0.0000 F   0  0  0  0  0  0  0  0  0  0  0  0
   23.0231  -12.0621    0.0000 F   0  0  0  0  0  0  0  0  0  0  0  0
  1  2  1  0  0  0  0
  1  3  1  0  0  0  0
  1  4  1  0  0  0  0
M  END
$$$$
