
  ACD/LABS05232614202D

  4  3  0  0  0  0  0  0  0  0  1 V2000
   18.4998   -7.7637    0.0000 B   0  0  0  0  0  0  0  0  0  0  0  0
   19.9708   -6.9144    0.0000 F   0  0  0  0  0  0  0  0  0  0  0  0
   17.0288   -6.9144    0.0000 F   0  0  0  0  0  0  0  0  0  0  0  0
   18.4998   -9.4622    0.0000 F   0  0  0  0  0  0  0  0  0  0  0  0
  1  2  1  0  0  0  0
  1  3  1  0  0  0  0
  1  4  1  0  0  0  0
M  END
$$$$

  ACD/LABS05232614202D

  5  4  0  0  0  0  0  0  0  0  1 V2000
   22.3937   -8.8594    0.0000 C   0  0  0  0  0  0  0  0  0  0  0  0
   23.0587   -7.7076    0.0000 C   0  0  0  0  0  0  0  0  0  0  0  0
   24.3887   -7.7076    0.0000 C   0  0  0  0  0  0  0  0  0  0  0  0
   25.0537   -6.5558    0.0000 O   0  0  0  0  0  0  0  0  0  0  0  0
   25.0537   -8.8594    0.0000 O   0  0  0  0  0  0  0  0  0  0  0  0
  1  2  1  0  0  0  0
  2  3  1  0  0  0  0
  3  4  2  0  0  0  0
  3  5  1  0  0  0  0
M  END
$$$$
