
  ACD/LABS05232612082D

 25 27  0  0  0  0  0  0  0  0  1 V2000
   21.0896   -5.6886    0.0000 C   0  0  0  0  0  0  0  0  0  0  0  0
   21.0896   -7.0186    0.0000 C   0  0  0  0  0  0  0  0  0  0  0  0
   19.9378   -5.0236    0.0000 C   0  0  0  0  0  0  0  0  0  0  0  0
   19.9378   -7.6836    0.0000 C   0  0  0  0  0  0  0  0  0  0  0  0
   18.7860   -5.6886    0.0000 C   0  0  0  0  0  0  0  0  0  0  0  0
   18.7860   -7.0186    0.0000 C   0  0  0  0  0  0  0  0  0  0  0  0
   22.2415   -7.6836    0.0000 Bi  0  0  0  0  0  0  0  0  0  0  0  0
   23.3933   -9.6786    0.0000 C   0  0  0  0  0  0  0  0  0  0  0  0
   23.3933  -11.0086    0.0000 C   0  0  0  0  0  0  0  0  0  0  0  0
   22.2415   -9.0136    0.0000 C   0  0  0  0  0  0  0  0  0  0  0  0
   22.2415  -11.6736    0.0000 C   0  0  0  0  0  0  0  0  0  0  0  0
   21.0896   -9.6786    0.0000 C   0  0  0  0  0  0  0  0  0  0  0  0
   21.0896  -11.0086    0.0000 C   0  0  0  0  0  0  0  0  0  0  0  0
   25.6969   -5.6886    0.0000 C   0  0  0  0  0  0  0  0  0  0  0  0
   25.6969   -7.0186    0.0000 C   0  0  0  0  0  0  0  0  0  0  0  0
   24.5451   -5.0236    0.0000 C   0  0  0  0  0  0  0  0  0  0  0  0
   24.5451   -7.6836    0.0000 C   0  0  0  0  0  0  0  0  0  0  0  0
   23.3933   -5.6886    0.0000 C   0  0  0  0  0  0  0  0  0  0  0  0
   23.3933   -7.0186    0.0000 C   0  0  0  0  0  0  0  0  0  0  0  0
   22.2415  -13.0116    0.0000 C   0  0  0  0  0  0  0  0  0  0  0  0
   26.8564   -5.0155    0.0000 C   0  0  0  0  0  0  0  0  0  0  0  0
   17.6265   -5.0155    0.0000 C   0  0  0  0  0  0  0  0  0  0  0  0
   24.5489   -9.0216    0.0000 C   0  0  0  0  0  0  0  0  0  0  0  0
   19.9340   -9.0055    0.0000 C   0  0  0  0  0  0  0  0  0  0  0  0
   22.2415   -5.0155    0.0000 C   0  0  0  0  0  0  0  0  0  0  0  0
  1  2  1  0  0  0  0
  1  3  2  0  0  0  0
  2  4  2  0  0  0  0
  3  5  1  0  0  0  0
  4  6  1  0  0  0  0
  5  6  2  0  0  0  0
  2  7  1  0  0  0  0
  8  9  1  0  0  0  0
  8 10  2  0  0  0  0
  9 11  2  0  0  0  0
 10 12  1  0  0  0  0
 11 13  1  0  0  0  0
 12 13  2  0  0  0  0
  7 10  1  0  0  0  0
 14 15  1  0  0  0  0
 14 16  2  0  0  0  0
 15 17  2  0  0  0  0
 16 18  1  0  0  0  0
 17 19  1  0  0  0  0
 18 19  2  0  0  0  0
  7 19  1  0  0  0  0
 11 20  1  0  0  0  0
 14 21  1  0  0  0  0
  5 22  1  0  0  0  0
 17 23  1  0  0  0  0
 12 24  1  0  0  0  0
  1 25  1  0  0  0  0
M  END
$$$$
