
  ACD/LABS05232611312D

  1  0  0  0  0  0  0  0  0  0  2 V2000
   20.1423   -7.1147    0.0000 Bi  0  1  0  0  0  0  0  0  0  0  0  0
M  CHG  1   1   3
M  END
$$$$

  ACD/LABS05232611312D

 11 10  0  0  0  0  0  0  0  0  2 V2000
   26.1994   -6.6821    0.0000 C   0  0  0  0  0  0  0  0  0  0  0  0
   26.8724   -5.5283    0.0000 C   0  0  0  0  0  0  0  0  0  0  0  0
   26.8564   -7.8358    0.0000 C   0  0  0  0  0  0  0  0  0  0  0  0
   24.8694   -6.6821    0.0000 C   0  0  0  0  0  0  0  0  0  0  0  0
   27.5294   -6.6821    0.0000 O   0  0  0  0  0  0  0  0  0  0  0  0
   25.9270   -4.5829    0.0000 O   0  0  0  0  0  0  0  0  0  0  0  0
   28.1543   -5.1758    0.0000 O   0  5  0  0  0  0  0  0  0  0  0  0
   26.5199   -9.1177    0.0000 O   0  0  0  0  0  0  0  0  0  0  0  0
   28.1383   -8.1723    0.0000 O   0  5  0  0  0  0  0  0  0  0  0  0
   23.9240   -5.7366    0.0000 O   0  5  0  0  0  0  0  0  0  0  0  0
   23.9240   -7.6275    0.0000 O   0  0  0  0  0  0  0  0  0  0  0  0
  1  2  1  0  0  0  0
  1  3  1  0  0  0  0
  1  4  1  0  0  0  0
  1  5  1  0  0  0  0
  2  6  2  0  0  0  0
  2  7  1  0  0  0  0
  3  8  2  0  0  0  0
  3  9  1  0  0  0  0
  4 10  1  0  0  0  0
  4 11  2  0  0  0  0
M  CHG  3   7  -1   9  -1  10  -1
M  END
$$$$
