
  ACD/LABS05232611112D

  1  0  0  0  0  0  0  0  0  0  2 V2000
   20.1423   -7.1147    0.0000 Bi  0  1  0  0  0  0  0  0  0  0  0  0
M  CHG  1   1   3
M  END
$$$$

  ACD/LABS05232611112D

  4  3  0  0  0  0  0  0  0  0  2 V2000
   25.7988   -7.4512    0.0000 N   0  3  0  0  0  0  0  0  0  0  0  0
   26.1353   -6.1693    0.0000 O   0  0  0  0  0  0  0  0  0  0  0  0
   26.7442   -8.3966    0.0000 O   0  5  0  0  0  0  0  0  0  0  0  0
   24.6451   -8.1242    0.0000 O   0  5  0  0  0  0  0  0  0  0  0  0
  1  2  2  0  0  0  0
  1  3  1  0  0  0  0
  1  4  1  0  0  0  0
M  CHG  3   1   1   3  -1   4  -1
M  END
$$$$

  ACD/LABS05232611112D

  4  3  0  0  0  0  0  0  0  0  2 V2000
   21.7928   -9.9990    0.0000 N   0  3  0  0  0  0  0  0  0  0  0  0
   22.1293   -8.7171    0.0000 O   0  0  0  0  0  0  0  0  0  0  0  0
   22.7382  -10.9445    0.0000 O   0  5  0  0  0  0  0  0  0  0  0  0
   20.6390  -10.6721    0.0000 O   0  5  0  0  0  0  0  0  0  0  0  0
  1  2  2  0  0  0  0
  1  3  1  0  0  0  0
  1  4  1  0  0  0  0
M  CHG  3   1   1   3  -1   4  -1
M  END
$$$$

  ACD/LABS05232611112D

  4  3  0  0  0  0  0  0  0  0  2 V2000
   17.7868   -9.2139    0.0000 N   0  3  0  0  0  0  0  0  0  0  0  0
   18.1233   -7.9319    0.0000 O   0  0  0  0  0  0  0  0  0  0  0  0
   18.7322  -10.1593    0.0000 O   0  5  0  0  0  0  0  0  0  0  0  0
   16.6330   -9.8869    0.0000 O   0  5  0  0  0  0  0  0  0  0  0  0
  1  2  2  0  0  0  0
  1  3  1  0  0  0  0
  1  4  1  0  0  0  0
M  CHG  3   1   1   3  -1   4  -1
M  END
$$$$
