
  ACD/LABS05232611202D

  1  0  0  0  0  0  0  0  0  0  2 V2000
   20.1423   -7.1147    0.0000 Bi  0  1  0  0  0  0  0  0  0  0  0  0
M  CHG  1   1   3
M  END
$$$$

  ACD/LABS05232611202D

  5  4  0  0  0  0  0  0  0  0  2 V2000
   26.3196   -7.8678    0.0000 P   0  0  0  0  0  0  0  0  0  0  0  0
   25.1979   -5.9250    0.0000 O   0  0  0  0  0  0  0  0  0  0  0  0
   28.2624   -6.7461    0.0000 O   0  5  0  0  0  0  0  0  0  0  0  0
   24.3768   -8.9895    0.0000 O   0  5  0  0  0  0  0  0  0  0  0  0
   27.4413   -9.8107    0.0000 O   0  5  0  0  0  0  0  0  0  0  0  0
  1  2  2  0  0  0  0
  1  3  1  0  0  0  0
  1  4  1  0  0  0  0
  1  5  1  0  0  0  0
M  CHG  3   3  -1   4  -1   5  -1
M  END
$$$$
