
  ACD/LABS05232611572D

 22 24  0  0  0  0  0  0  0  0  1 V2000
   21.0896   -5.6886    0.0000 C   0  0  0  0  0  0  0  0  0  0  0  0
   21.0896   -7.0186    0.0000 C   0  0  0  0  0  0  0  0  0  0  0  0
   19.9378   -5.0236    0.0000 C   0  0  0  0  0  0  0  0  0  0  0  0
   19.9378   -7.6836    0.0000 C   0  0  0  0  0  0  0  0  0  0  0  0
   18.7860   -5.6886    0.0000 C   0  0  0  0  0  0  0  0  0  0  0  0
   18.7860   -7.0186    0.0000 C   0  0  0  0  0  0  0  0  0  0  0  0
   17.6342   -5.0236    0.0000 C   0  0  0  0  0  0  0  0  0  0  0  0
   22.2415   -7.6836    0.0000 Bi  0  0  0  0  0  0  0  0  0  0  0  0
   23.3933   -9.6786    0.0000 C   0  0  0  0  0  0  0  0  0  0  0  0
   23.3933  -11.0086    0.0000 C   0  0  0  0  0  0  0  0  0  0  0  0
   22.2415   -9.0136    0.0000 C   0  0  0  0  0  0  0  0  0  0  0  0
   22.2415  -11.6736    0.0000 C   0  0  0  0  0  0  0  0  0  0  0  0
   21.0896   -9.6786    0.0000 C   0  0  0  0  0  0  0  0  0  0  0  0
   21.0896  -11.0086    0.0000 C   0  0  0  0  0  0  0  0  0  0  0  0
   22.2415  -13.0036    0.0000 C   0  0  0  0  0  0  0  0  0  0  0  0
   25.6969   -5.6886    0.0000 C   0  0  0  0  0  0  0  0  0  0  0  0
   25.6969   -7.0186    0.0000 C   0  0  0  0  0  0  0  0  0  0  0  0
   24.5451   -5.0236    0.0000 C   0  0  0  0  0  0  0  0  0  0  0  0
   24.5451   -7.6836    0.0000 C   0  0  0  0  0  0  0  0  0  0  0  0
   23.3933   -5.6886    0.0000 C   0  0  0  0  0  0  0  0  0  0  0  0
   23.3933   -7.0186    0.0000 C   0  0  0  0  0  0  0  0  0  0  0  0
   26.8487   -5.0236    0.0000 C   0  0  0  0  0  0  0  0  0  0  0  0
  1  2  1  0  0  0  0
  1  3  2  0  0  0  0
  2  4  2  0  0  0  0
  3  5  1  0  0  0  0
  4  6  1  0  0  0  0
  5  6  2  0  0  0  0
  5  7  1  0  0  0  0
  2  8  1  0  0  0  0
  9 10  1  0  0  0  0
  9 11  2  0  0  0  0
 10 12  2  0  0  0  0
 11 13  1  0  0  0  0
 12 14  1  0  0  0  0
 13 14  2  0  0  0  0
 12 15  1  0  0  0  0
  8 11  1  0  0  0  0
 16 17  1  0  0  0  0
 16 18  2  0  0  0  0
 17 19  2  0  0  0  0
 18 20  1  0  0  0  0
 19 21  1  0  0  0  0
 20 21  2  0  0  0  0
 16 22  1  0  0  0  0
  8 21  1  0  0  0  0
M  END
$$$$
