
  ACD/LABS05232611512D

 21 23  0  0  0  0  0  0  0  0  1 V2000
   21.7607   -7.9159    0.0000 Bi  0  0  0  0  0  0  0  0  0  0  0  0
   23.0907   -7.9159    0.0000 C   0  0  0  0  0  0  0  0  0  0  0  0
   23.7557   -6.7641    0.0000 C   0  0  0  0  0  0  0  0  0  0  0  0
   23.7558   -9.0678    0.0000 C   0  0  0  0  0  0  0  0  0  0  0  0
   25.0858   -6.7642    0.0000 C   0  0  0  0  0  0  0  0  0  0  0  0
   25.0858   -9.0678    0.0000 C   0  0  0  0  0  0  0  0  0  0  0  0
   25.7508   -7.9160    0.0000 C   0  0  0  0  0  0  0  0  0  0  0  0
   21.0957   -6.7641    0.0000 C   0  0  0  0  0  0  0  0  0  0  0  0
   19.7657   -6.7641    0.0000 C   0  0  0  0  0  0  0  0  0  0  0  0
   21.7607   -5.6122    0.0000 C   0  0  0  0  0  0  0  0  0  0  0  0
   19.1007   -5.6122    0.0000 C   0  0  0  0  0  0  0  0  0  0  0  0
   21.0958   -4.4604    0.0000 C   0  0  0  0  0  0  0  0  0  0  0  0
   19.7658   -4.4604    0.0000 C   0  0  0  0  0  0  0  0  0  0  0  0
   21.0957   -9.0677    0.0000 C   0  0  0  0  0  0  0  0  0  0  0  0
   21.7607  -10.2195    0.0000 C   0  0  0  0  0  0  0  0  0  0  0  0
   19.7657   -9.0678    0.0000 C   0  0  0  0  0  0  0  0  0  0  0  0
   21.0956  -11.3714    0.0000 C   0  0  0  0  0  0  0  0  0  0  0  0
   19.1007  -10.2195    0.0000 C   0  0  0  0  0  0  0  0  0  0  0  0
   19.7657  -11.3714    0.0000 C   0  0  0  0  0  0  0  0  0  0  0  0
   19.8699   -8.2524    0.0000 Cl  0  0  0  0  0  0  0  0  0  0  0  0
   22.2094   -8.8613    0.0000 Cl  0  0  0  0  0  0  0  0  0  0  0  0
  2  3  1  0  0  0  0
  2  4  2  0  0  0  0
  3  5  2  0  0  0  0
  4  6  1  0  0  0  0
  5  7  1  0  0  0  0
  6  7  2  0  0  0  0
  1  2  1  0  0  0  0
  8  9  1  0  0  0  0
  8 10  2  0  0  0  0
  9 11  2  0  0  0  0
 10 12  1  0  0  0  0
 11 13  1  0  0  0  0
 12 13  2  0  0  0  0
  1  8  1  0  0  0  0
 14 15  1  0  0  0  0
 14 16  2  0  0  0  0
 15 17  2  0  0  0  0
 16 18  1  0  0  0  0
 17 19  1  0  0  0  0
 18 19  2  0  0  0  0
  1 14  1  0  0  0  0
  1 20  1  0  0  0  0
  1 21  1  0  0  0  0
M  END
$$$$
