
  ACD/LABS05232611242D

  1  0  0  0  0  0  0  0  0  0  2 V2000
   20.1423   -7.1147    0.0000 Bi  0  1  0  0  0  0  0  0  0  0  0  0
M  CHG  1   1   3
M  END
$$$$

  ACD/LABS05232611242D

  1  0  0  0  0  0  0  0  0  0  2 V2000
   20.6711   -5.0796    0.0000 Bi  0  1  0  0  0  0  0  0  0  0  0  0
M  CHG  1   1   3
M  END
$$$$

  ACD/LABS05232611242D

  5  4  0  0  0  0  0  0  0  0  2 V2000
   27.2410   -6.1693    0.0000 S   0  0  0  0  0  0  0  0  0  0  0  0
   27.2410   -4.8393    0.0000 O   0  0  0  0  0  0  0  0  0  0  0  0
   25.9590   -6.5058    0.0000 O   0  0  0  0  0  0  0  0  0  0  0  0
   27.5775   -7.4512    0.0000 O   0  5  0  0  0  0  0  0  0  0  0  0
   28.5229   -5.8167    0.0000 O   0  5  0  0  0  0  0  0  0  0  0  0
  1  2  2  0  0  0  0
  1  3  2  0  0  0  0
  1  4  1  0  0  0  0
  1  5  1  0  0  0  0
M  CHG  2   4  -1   5  -1
M  END
$$$$

  ACD/LABS05232611242D

  5  4  0  0  0  0  0  0  0  0  2 V2000
   25.3341   -9.5664    0.0000 S   0  0  0  0  0  0  0  0  0  0  0  0
   25.3341   -8.2364    0.0000 O   0  0  0  0  0  0  0  0  0  0  0  0
   24.0522   -9.9029    0.0000 O   0  0  0  0  0  0  0  0  0  0  0  0
   25.6706  -10.8483    0.0000 O   0  5  0  0  0  0  0  0  0  0  0  0
   26.6160   -9.2139    0.0000 O   0  5  0  0  0  0  0  0  0  0  0  0
  1  2  2  0  0  0  0
  1  3  2  0  0  0  0
  1  4  1  0  0  0  0
  1  5  1  0  0  0  0
M  CHG  2   4  -1   5  -1
M  END
$$$$

  ACD/LABS05232611242D

  5  4  0  0  0  0  0  0  0  0  2 V2000
   20.4948  -10.4637    0.0000 S   0  0  0  0  0  0  0  0  0  0  0  0
   20.4948   -9.1337    0.0000 O   0  0  0  0  0  0  0  0  0  0  0  0
   19.2129  -10.8002    0.0000 O   0  0  0  0  0  0  0  0  0  0  0  0
   20.8313  -11.7457    0.0000 O   0  5  0  0  0  0  0  0  0  0  0  0
   21.7768  -10.1112    0.0000 O   0  5  0  0  0  0  0  0  0  0  0  0
  1  2  2  0  0  0  0
  1  3  2  0  0  0  0
  1  4  1  0  0  0  0
  1  5  1  0  0  0  0
M  CHG  2   4  -1   5  -1
M  END
$$$$
