
  ACD/LABS05232611222D

  1  0  0  0  0  0  0  0  0  0  2 V2000
   20.1423   -7.1147    0.0000 Bi  0  1  0  0  0  0  0  0  0  0  0  0
M  CHG  1   1   3
M  END
$$$$

  ACD/LABS05232611222D

  1  0  0  0  0  0  0  0  0  0  2 V2000
   23.1388   -5.9449    0.0000 O   0  6  0  0  0  0  0  0  0  0  0  0
M  CHG  1   1  -2
M  END
$$$$

  ACD/LABS05232611222D

  1  0  0  0  0  0  0  0  0  0  2 V2000
   22.8183   -7.5153    0.0000 O   0  6  0  0  0  0  0  0  0  0  0  0
M  CHG  1   1  -2
M  END
$$$$

  ACD/LABS05232611222D

  1  0  0  0  0  0  0  0  0  0  2 V2000
   22.4337   -9.1498    0.0000 O   0  6  0  0  0  0  0  0  0  0  0  0
M  CHG  1   1  -2
M  END
$$$$

  ACD/LABS05232611222D

  1  0  0  0  0  0  0  0  0  0  2 V2000
   20.6711   -5.0796    0.0000 Bi  0  1  0  0  0  0  0  0  0  0  0  0
M  CHG  1   1   3
M  END
$$$$
