
  ACD/LABS05232610422D

  4  3  0  0  0  0  0  0  0  0  1 V2000
   19.5654   -7.8358    0.0000 Bi  0  0  0  0  0  0  0  0  0  0  0  0
   21.0396   -9.4222    0.0000 Br  0  0  0  0  0  0  0  0  0  0  0  0
   19.5013   -6.0251    0.0000 Br  0  0  0  0  0  0  0  0  0  0  0  0
   18.3155   -9.1177    0.0000 Br  0  0  0  0  0  0  0  0  0  0  0  0
  1  2  1  0  0  0  0
  1  3  1  0  0  0  0
  1  4  1  0  0  0  0
M  END
$$$$
