
  ACD/LABS05232610582D

  4  3  0  0  0  0  0  0  0  0  1 V2000
   18.7322   -7.4833    0.0000 Bi  0  0  0  0  0  0  0  0  0  0  0  0
   20.9916   -5.9930    0.0000 F   0  0  0  0  0  0  0  0  0  0  0  0
   17.6425   -5.4963    0.0000 F   0  0  0  0  0  0  0  0  0  0  0  0
   18.7802   -9.0376    0.0000 F   0  0  0  0  0  0  0  0  0  0  0  0
  1  2  1  0  0  0  0
  1  3  1  0  0  0  0
  1  4  1  0  0  0  0
M  END
$$$$
