
  ACD/LABS05242623192D

 12 13  0  0  0  0  0  0  0  0  1 V2000
   23.8156   -7.6916    0.0000 C   0  0  0  0  0  0  0  0  0  0  0  0
   22.6638   -8.3566    0.0000 C   0  0  0  0  0  0  0  0  0  0  0  0
   23.8156   -6.3616    0.0000 C   0  0  0  0  0  0  0  0  0  0  0  0
   21.5120   -7.6916    0.0000 C   0  0  0  0  0  0  0  0  0  0  0  0
   22.6638   -5.6966    0.0000 C   0  0  0  0  0  0  0  0  0  0  0  0
   21.5120   -6.3616    0.0000 C   0  0  0  0  0  0  0  0  0  0  0  0
   24.9674   -5.6966    0.0000 C   0  0  0  0  0  0  0  0  0  0  0  0
   24.9674   -4.3666    0.0000 C   0  0  0  0  0  0  0  0  0  0  0  0
   26.1193   -6.3616    0.0000 C   0  0  0  0  0  0  0  0  0  0  0  0
   26.1193   -3.7016    0.0000 C   0  0  0  0  0  0  0  0  0  0  0  0
   27.2711   -5.6966    0.0000 C   0  0  0  0  0  0  0  0  0  0  0  0
   27.2711   -4.3666    0.0000 C   0  0  0  0  0  0  0  0  0  0  0  0
  1  2  1  0  0  0  0
  1  3  2  0  0  0  0
  2  4  2  0  0  0  0
  3  5  1  0  0  0  0
  4  6  1  0  0  0  0
  5  6  2  0  0  0  0
  7  8  1  0  0  0  0
  7  9  2  0  0  0  0
  8 10  2  0  0  0  0
  9 11  1  0  0  0  0
 10 12  1  0  0  0  0
 11 12  2  0  0  0  0
  3  7  1  0  0  0  0
M  END
$$$$
