
  ACD/LABS05232615012D

 11 12  0  0  0  0  0  0  0  0  1 V2000
   19.5318   -5.5744    0.0000 B   0  0  0  0  0  0  0  0  0  0  0  0
   17.9088   -7.7204    0.0000 O   0  0  0  0  0  0  0  0  0  0  0  0
   21.7932   -4.1818    0.0000 O   0  0  0  0  0  0  0  0  0  0  0  0
   17.4919   -3.9157    0.0000 O   0  0  0  0  0  0  0  0  0  0  0  0
   18.4498   -8.9356    0.0000 C   0  0  0  0  0  0  0  0  0  0  0  0
   19.7621   -8.7937    0.0000 C   0  0  0  0  0  0  0  0  0  0  0  0
   19.8685   -6.8513    0.0000 N   0  0  0  0  0  0  0  0  0  0  0  0
   16.2769   -4.4567    0.0000 C   0  0  0  0  0  0  0  0  0  0  0  0
   16.4099   -5.7873    0.0000 C   0  0  0  0  0  0  0  0  0  0  0  0
   22.8219   -5.0245    0.0000 C   0  0  0  0  0  0  0  0  0  0  0  0
   22.3519   -6.2661    0.0000 C   0  0  0  0  0  0  0  0  0  0  0  0
  1  2  1  0  0  0  0
  1  3  1  0  0  0  0
  1  4  1  0  0  0  0
  2  5  1  0  0  0  0
  5  6  1  0  0  0  0
  6  7  1  0  0  0  0
  4  8  1  0  0  0  0
  8  9  1  0  0  0  0
  9  7  1  0  0  0  0
  3 10  1  0  0  0  0
 10 11  1  0  0  0  0
 11  7  1  0  0  0  0
M  END
$$$$
