
  ACD/LABS06062617462D

  4  3  0  0  0  0  0  0  0  0  1 V2000
   20.2384   -7.1467    0.0000 Br  0  0  0  0  0  0  0  0  0  0  0  0
   21.3922   -7.8037    0.0000 F   0  0  0  0  0  0  0  0  0  0  0  0
   20.2384   -5.8167    0.0000 F   0  0  0  0  0  0  0  0  0  0  0  0
   19.0847   -7.8037    0.0000 F   0  0  0  0  0  0  0  0  0  0  0  0
  1  2  1  0  0  0  0
  1  3  1  0  0  0  0
  1  4  1  0  0  0  0
M  END
$$$$
