
  ACD/LABS06062617492D

  6  5  0  0  0  0  0  0  0  0  1 V2000
   20.3239   -7.1038    0.0000 Br  0  0  0  0  0  0  0  0  0  0  0  0
   21.4757   -7.7688    0.0000 F   0  0  0  0  0  0  0  0  0  0  0  0
   19.7829   -5.8888    0.0000 F   0  0  0  0  0  0  0  0  0  0  0  0
   19.0012   -7.2428    0.0000 F   0  0  0  0  0  0  0  0  0  0  0  0
   20.0474   -8.4047    0.0000 F   0  0  0  0  0  0  0  0  0  0  0  0
   21.3123   -6.2138    0.0000 F   0  0  0  0  0  0  0  0  0  0  0  0
  1  2  1  0  0  0  0
  1  3  1  0  0  0  0
  1  4  1  0  0  0  0
  1  5  1  0  0  0  0
  1  6  1  0  0  0  0
M  END
$$$$
