
  ACD/LABS06062619052D

  4  3  0  0  0  0  0  0  0  0  2 V2000
   14.8063   -6.5231    0.0000 Br  0  0  0  0  0  0  0  0  0  0  0  0
   15.9561   -7.1916    0.0000 O   0  0  0  0  0  0  0  0  0  0  0  0
   14.8063   -5.1951    0.0000 O   0  0  0  0  0  0  0  0  0  0  0  0
   13.6565   -7.1916    0.0000 O   0  5  0  0  0  0  0  0  0  0  0  0
  1  2  2  0  0  0  0
  1  3  2  0  0  0  0
  1  4  1  0  0  0  0
M  CHG  1   4  -1
M  END
$$$$
