
  ACD/LABS05242623262D

  4  3  0  0  0  0  0  0  0  0  1 V2000
   15.3030   -5.4362    0.0000 Cl  0  0  0  0  0  0  0  0  0  0  0  0
   16.4548   -4.7712    0.0000 C   0  0  0  0  0  0  0  0  0  0  0  0
   17.6066   -5.4362    0.0000 Br  0  0  0  0  0  0  0  0  0  0  0  0
   16.4568   -3.4452    0.0000 Cl  0  0  0  0  0  0  0  0  0  0  0  0
  1  2  1  0  0  0  0
  2  3  1  0  0  0  0
  2  4  1  0  0  0  0
M  END
$$$$
