
  ACD/LABS05242623222D

  7  7  0  0  0  0  0  0  0  0  1 V2000
   21.3422   -6.4016    0.0000 C   0  0  0  0  0  0  0  0  0  0  0  0
   21.3422   -7.7316    0.0000 C   0  0  0  0  0  0  0  0  0  0  0  0
   20.1903   -5.7366    0.0000 C   0  0  0  0  0  0  0  0  0  0  0  0
   20.1903   -8.3966    0.0000 C   0  0  0  0  0  0  0  0  0  0  0  0
   19.0385   -6.4016    0.0000 C   0  0  0  0  0  0  0  0  0  0  0  0
   19.0385   -7.7316    0.0000 C   0  0  0  0  0  0  0  0  0  0  0  0
   20.1904   -4.4066    0.0000 Br  0  0  0  0  0  0  0  0  0  0  0  0
  1  2  1  0  0  0  0
  1  3  2  0  0  0  0
  2  4  2  0  0  0  0
  3  5  1  0  0  0  0
  4  6  1  0  0  0  0
  5  6  2  0  0  0  0
  3  7  1  0  0  0  0
M  END
$$$$
