
  ACD/LABS05252610312D

  5  4  0  0  0  0  0  0  0  0  1 V2000
   21.1118   -6.7301    0.0000 C   0  0  0  0  0  0  0  0  0  0  0  0
   22.2636   -7.3951    0.0000 Cl  0  0  0  0  0  0  0  0  0  0  0  0
   21.7768   -5.5783    0.0000 Cl  0  0  0  0  0  0  0  0  0  0  0  0
   20.4468   -7.8819    0.0000 Cl  0  0  0  0  0  0  0  0  0  0  0  0
   19.9599   -6.0651    0.0000 Br  0  0  0  0  0  0  0  0  0  0  0  0
  1  2  1  0  0  0  0
  1  3  1  0  0  0  0
  1  4  1  0  0  0  0
  1  5  1  0  0  0  0
M  END
$$$$
