
  ACD/LABS05252611052D

  5  4  0  0  0  0  0  0  0  0  1 V2000
   20.9568   -5.4673    0.0000 C   0  0  0  0  0  0  0  0  0  0  0  0
   21.6218   -6.6192    0.0000 C   0  0  0  0  0  0  0  0  0  0  0  0
   22.9518   -6.6192    0.0000 C   0  0  0  0  0  0  0  0  0  0  0  0
   23.6168   -7.7710    0.0000 C   0  0  0  0  0  0  0  0  0  0  0  0
   24.2818   -8.9228    0.0000 N   0  0  0  0  0  0  0  0  0  0  0  0
  1  2  1  0  0  0  0
  2  3  1  0  0  0  0
  3  4  1  0  0  0  0
  4  5  3  0  0  0  0
M  END
$$$$
