
  ACD/LABS05252611252D

  5  4  0  0  0  0  0  0  0  0  1 V2000
   21.9426   -7.9603    0.0000 C   0  0  0  0  0  0  0  0  0  0  0  0
   20.6126   -7.9603    0.0000 C   0  0  0  0  0  0  0  0  0  0  0  0
   19.9476   -9.1121    0.0000 C   0  0  0  0  0  0  0  0  0  0  0  0
   22.6076   -6.8085    0.0000 C   0  0  0  0  0  0  0  0  0  0  0  0
   23.9376   -6.8085    0.0000 N   0  0  0  0  0  0  0  0  0  0  0  0
  1  2  1  0  0  0  0
  2  3  1  0  0  0  0
  1  4  1  0  0  0  0
  4  5  1  0  0  0  0
M  END
$$$$
