
  ACD/LABS05252611272D

 10 10  0  0  0  0  0  0  0  0  1 V2000
   21.9426   -7.9603    0.0000 C   0  0  0  0  0  0  0  0  0  0  0  0
   20.6126   -7.9603    0.0000 C   0  0  0  0  0  0  0  0  0  0  0  0
   19.9476   -9.1121    0.0000 C   0  0  0  0  0  0  0  0  0  0  0  0
   22.6076   -6.8085    0.0000 C   0  0  0  0  0  0  0  0  0  0  0  0
   23.9376   -6.8085    0.0000 C   0  0  0  0  0  0  0  0  0  0  0  0
   24.6026   -5.6567    0.0000 C   0  0  0  0  0  0  0  0  0  0  0  0
   24.6027   -7.9604    0.0000 C   0  0  0  0  0  0  0  0  0  0  0  0
   25.9327   -5.6568    0.0000 C   0  0  0  0  0  0  0  0  0  0  0  0
   25.9327   -7.9604    0.0000 C   0  0  0  0  0  0  0  0  0  0  0  0
   26.5977   -6.8086    0.0000 C   0  0  0  0  0  0  0  0  0  0  0  0
  1  2  1  0  0  0  0
  2  3  1  0  0  0  0
  1  4  1  0  0  0  0
  5  6  1  0  0  0  0
  5  7  2  0  0  0  0
  6  8  2  0  0  0  0
  7  9  1  0  0  0  0
  8 10  1  0  0  0  0
  9 10  2  0  0  0  0
  4  5  1  0  0  0  0
M  END
$$$$
