
  ACD/LABS05252611382D

  7  6  0  0  0  0  0  0  0  0  1 V2000
   18.2813   -6.3976    0.0000 C   0  0  0  0  0  0  0  0  0  0  0  0
   19.4331   -5.7326    0.0000 C   0  0  0  0  0  0  0  0  0  0  0  0
   20.5849   -6.3976    0.0000 C   0  0  0  0  0  0  0  0  0  0  0  0
   21.7367   -5.7326    0.0000 C   0  0  0  0  0  0  0  0  0  0  0  0
   22.8885   -6.3976    0.0000 O   0  0  0  0  0  0  0  0  0  0  0  0
   24.0403   -5.7326    0.0000 C   0  0  0  0  0  0  0  0  0  0  0  0
   25.1921   -6.3976    0.0000 O   0  0  0  0  0  0  0  0  0  0  0  0
  1  2  1  0  0  0  0
  2  3  1  0  0  0  0
  3  4  1  0  0  0  0
  4  5  1  0  0  0  0
  5  6  1  0  0  0  0
  6  7  2  0  0  0  0
M  END
$$$$
