
  ACD/LABS05252611553D

 13 15  0  0  0  0  0  0  0  0  1 V2000
   19.6917   -7.6515    0.0000 C   0  0  0  0  0  0  0  0  0  0  0  0
   19.6917   -8.9815    0.0000 C   0  0  0  0  0  0  0  0  0  0  0  0
   18.5398   -6.9865    0.0000 C   0  0  0  0  0  0  0  0  0  0  0  0
   18.5398   -9.6465    0.0000 C   0  0  0  0  0  0  0  0  0  0  0  0
   17.3880   -7.6515    0.0000 C   0  0  0  0  0  0  0  0  0  0  0  0
   17.3880   -8.9815    0.0000 C   0  0  0  0  0  0  0  0  0  0  0  0
   20.6801   -6.7615    0.0000 C   0  0  0  0  0  0  0  0  0  0  0  0
   20.1391   -5.5465    0.0000 C   0  0  0  0  0  0  0  0  0  0  0  0
   18.8164   -5.6854    0.0000 N   0  0  0  0  0  0  0  0  0  0  0  0
   22.0028   -6.9004    0.0000 C   0  0  0  0  0  0  0  0  0  0  0  0
   22.7844   -5.8243    0.0000 C   0  0  0  0  0  0  0  0  0  0  0  0
   20.9207   -4.4705    0.0000 C   0  0  0  0  0  0  0  0  0  0  0  0
   22.2434   -4.6094    0.0000 C   0  0  0  0  0  0  0  0  0  0  0  0
  1  2  1  0  0  0  0
  1  3  2  0  0  0  0
  2  4  2  0  0  0  0
  3  5  1  0  0  0  0
  4  6  1  0  0  0  0
  5  6  2  0  0  0  0
  1  7  1  0  0  0  0
  3  9  1  0  0  0  0
  8  9  1  0  0  0  0
  7 10  1  0  0  0  0
  7  8  2  0  0  0  0
 10 11  2  0  0  0  0
  8 12  1  0  0  0  0
 11 13  1  0  0  0  0
 12 13  2  0  0  0  0
M  END
$$$$
