
  ACD/LABS05252611582D

  4  3  0  0  0  0  0  0  0  0  1 V2000
   22.4177   -8.9535    0.0000 C   0  0  0  0  0  0  0  0  0  0  0  0
   22.4177   -7.6235    0.0000 O   0  0  0  0  0  0  0  0  0  0  0  0
   23.5695   -9.6185    0.0000 Cl  0  0  0  0  0  0  0  0  0  0  0  0
   21.2659   -9.6185    0.0000 Cl  0  0  0  0  0  0  0  0  0  0  0  0
  1  2  2  0  0  0  0
  1  3  1  0  0  0  0
  1  4  1  0  0  0  0
M  END
$$$$
