
  ACD/LABS06062619262D

  1  0  0  0  0  0  0  0  0  0  2 V2000
   17.0016   -5.7206    0.0000 Cd  0  2  0  0  0  0  0  0  0  0  0  0
M  CHG  1   1   2
M  END
$$$$

  ACD/LABS06062619262D

  4  3  0  0  0  0  0  0  0  0  2 V2000
   22.4458   -4.0301    0.0000 Br  0  0  0  0  0  0  0  0  0  0  0  0
   23.1108   -2.8782    0.0000 O   0  0  0  0  0  0  0  0  0  0  0  0
   23.1108   -5.1819    0.0000 O   0  0  0  0  0  0  0  0  0  0  0  0
   21.1158   -4.0301    0.0000 O   0  5  0  0  0  0  0  0  0  0  0  0
  1  2  2  0  0  0  0
  1  3  2  0  0  0  0
  1  4  1  0  0  0  0
M  CHG  1   4  -1
M  END
$$$$

  ACD/LABS06062619262D

  4  3  0  0  0  0  0  0  0  0  2 V2000
   22.1253   -7.6355    0.0000 Br  0  0  0  0  0  0  0  0  0  0  0  0
   22.7903   -8.7873    0.0000 O   0  0  0  0  0  0  0  0  0  0  0  0
   22.7903   -6.4837    0.0000 O   0  0  0  0  0  0  0  0  0  0  0  0
   20.7953   -7.6355    0.0000 O   0  5  0  0  0  0  0  0  0  0  0  0
  1  2  2  0  0  0  0
  1  3  2  0  0  0  0
  1  4  1  0  0  0  0
M  CHG  1   4  -1
M  END
$$$$

  ACD/LABS06062619262D

  1  0  0  0  0  0  0  0  0  0  1 V2000
   25.5745   -5.8488    0.0000 O   0  0  0  0  0  0  0  0  0  0  0  0
M  END
$$$$
