
  ACD/LABS05232612292D

  1  0  0  0  0  0  0  0  0  0  2 V2000
   19.9180   -9.1017    0.0000 Cd  0  2  0  0  0  0  0  0  0  0  0  0
M  CHG  1   1   2
M  END
$$$$

  ACD/LABS05232612292D

  5  4  0  0  0  0  0  0  0  0  2 V2000
   25.3021   -6.7942    0.0000 B   0  5  0  0  0  0  0  0  0  0  0  0
   26.4558   -7.6114    0.0000 F   0  0  0  0  0  0  0  0  0  0  0  0
   25.4783   -5.5123    0.0000 F   0  0  0  0  0  0  0  0  0  0  0  0
   23.9400   -6.4096    0.0000 F   0  0  0  0  0  0  0  0  0  0  0  0
   24.7412   -8.0121    0.0000 F   0  0  0  0  0  0  0  0  0  0  0  0
  1  2  1  0  0  0  0
  1  3  1  0  0  0  0
  1  4  1  0  0  0  0
  1  5  1  0  0  0  0
M  CHG  1   1  -1
M  END
$$$$

  ACD/LABS05232612292D

  5  4  0  0  0  0  0  0  0  0  2 V2000
   24.7893  -10.9445    0.0000 B   0  5  0  0  0  0  0  0  0  0  0  0
   25.9430  -11.7617    0.0000 F   0  0  0  0  0  0  0  0  0  0  0  0
   24.9655   -9.6625    0.0000 F   0  0  0  0  0  0  0  0  0  0  0  0
   23.4272  -10.5599    0.0000 F   0  0  0  0  0  0  0  0  0  0  0  0
   24.2284  -12.1623    0.0000 F   0  0  0  0  0  0  0  0  0  0  0  0
  1  2  1  0  0  0  0
  1  3  1  0  0  0  0
  1  4  1  0  0  0  0
  1  5  1  0  0  0  0
M  CHG  1   1  -1
M  END
$$$$
