
  ACD/LABS06062620492D

  1  0  0  0  0  0  0  0  0  0  2 V2000
   17.0016   -5.7206    0.0000 Cd  0  2  0  0  0  0  0  0  0  0  0  0
M  CHG  1   1   2
M  END
$$$$

  ACD/LABS06062620492D

  4  3  0  0  0  0  0  0  0  0  2 V2000
   21.6128   -5.4362    0.0000 C   0  0  0  0  0  0  0  0  0  0  0  0
   21.9716   -6.7121    0.0000 O   0  0  0  0  0  0  0  0  0  0  0  0
   20.2586   -5.2583    0.0000 O   0  5  0  0  0  0  0  0  0  0  0  0
   22.2778   -4.2844    0.0000 C   0  0  0  0  0  0  0  0  0  0  0  0
  1  2  2  0  0  0  0
  1  3  1  0  0  0  0
  1  4  1  0  0  0  0
M  CHG  1   3  -1
M  END
$$$$

  ACD/LABS06062620492D

  4  3  0  0  0  0  0  0  0  0  2 V2000
   19.2733   -7.9039    0.0000 C   0  0  0  0  0  0  0  0  0  0  0  0
   19.6321   -9.1798    0.0000 O   0  0  0  0  0  0  0  0  0  0  0  0
   17.9191   -7.7261    0.0000 O   0  5  0  0  0  0  0  0  0  0  0  0
   19.9383   -6.7521    0.0000 C   0  0  0  0  0  0  0  0  0  0  0  0
  1  2  2  0  0  0  0
  1  3  1  0  0  0  0
  1  4  1  0  0  0  0
M  CHG  1   3  -1
M  END
$$$$

  ACD/LABS06062620492D

  1  0  0  0  0  0  0  0  0  0  1 V2000
   14.1974   -4.2945    0.0000 O   0  0  0  0  0  0  0  0  0  0  0  0
M  END
$$$$

  ACD/LABS06062620492D

  1  0  0  0  0  0  0  0  0  0  1 V2000
   14.2454   -5.8167    0.0000 O   0  0  0  0  0  0  0  0  0  0  0  0
M  END
$$$$

  ACD/LABS06062620492D

  1  0  0  0  0  0  0  0  0  0  1 V2000
   14.4377   -7.4512    0.0000 O   0  0  0  0  0  0  0  0  0  0  0  0
M  END
$$$$
