
  ACD/LABS06062619572D

  1  0  0  0  0  0  0  0  0  0  2 V2000
   17.0016   -5.7206    0.0000 Cd  0  2  0  0  0  0  0  0  0  0  0  0
M  CHG  1   1   2
M  END
$$$$

  ACD/LABS06062619572D

  4  3  0  0  0  0  0  0  0  0  2 V2000
   21.1598   -5.9890    0.0000 Cl  0  0  0  0  0  0  0  0  0  0  0  0
   21.1598   -4.6590    0.0000 O   0  5  0  0  0  0  0  0  0  0  0  0
   22.3116   -6.6540    0.0000 O   0  0  0  0  0  0  0  0  0  0  0  0
   20.0080   -6.6540    0.0000 O   0  0  0  0  0  0  0  0  0  0  0  0
  1  2  1  0  0  0  0
  1  3  2  0  0  0  0
  1  4  2  0  0  0  0
M  CHG  1   2  -1
M  END
$$$$

  ACD/LABS06062619572D

  4  3  0  0  0  0  0  0  0  0  2 V2000
   21.2079   -8.9695    0.0000 Cl  0  0  0  0  0  0  0  0  0  0  0  0
   21.2079   -7.6395    0.0000 O   0  5  0  0  0  0  0  0  0  0  0  0
   22.3597   -9.6345    0.0000 O   0  0  0  0  0  0  0  0  0  0  0  0
   20.0561   -9.6345    0.0000 O   0  0  0  0  0  0  0  0  0  0  0  0
  1  2  1  0  0  0  0
  1  3  2  0  0  0  0
  1  4  2  0  0  0  0
M  CHG  1   2  -1
M  END
$$$$

  ACD/LABS06062619572D

  1  0  0  0  0  0  0  0  0  0  1 V2000
   14.1172   -4.6149    0.0000 O   0  0  0  0  0  0  0  0  0  0  0  0
M  END
$$$$

  ACD/LABS06062619572D

  1  0  0  0  0  0  0  0  0  0  1 V2000
   14.0051   -6.7942    0.0000 O   0  0  0  0  0  0  0  0  0  0  0  0
M  END
$$$$
