
  ACD/LABS06062619342D

  1  0  0  0  0  0  0  0  0  0  2 V2000
   17.0016   -5.7206    0.0000 Cd  0  2  0  0  0  0  0  0  0  0  0  0
M  CHG  1   1   2
M  END
$$$$

  ACD/LABS06062619342D

  2  1  0  0  0  0  0  0  0  0  2 V2000
   20.1423   -4.3586    0.0000 C   0  5  0  0  0  0  0  0  0  0  0  0
   21.4723   -4.3586    0.0000 N   0  0  0  0  0  0  0  0  0  0  0  0
  1  2  3  0  0  0  0
M  CHG  1   1  -1
M  END
$$$$

  ACD/LABS06062619342D

  2  1  0  0  0  0  0  0  0  0  2 V2000
   19.9180   -6.2814    0.0000 C   0  5  0  0  0  0  0  0  0  0  0  0
   21.2480   -6.2814    0.0000 N   0  0  0  0  0  0  0  0  0  0  0  0
  1  2  3  0  0  0  0
M  CHG  1   1  -1
M  END
$$$$
