
  ACD/LABS06062619362D

  1  0  0  0  0  0  0  0  0  0  2 V2000
   17.0016   -5.7206    0.0000 Cd  0  2  0  0  0  0  0  0  0  0  0  0
M  CHG  1   1   2
M  END
$$$$

  ACD/LABS06062619362D

  6  5  0  0  0  0  0  0  0  0  2 V2000
   22.6180   -5.2799    0.0000 C   0  0  0  0  0  0  0  0  0  0  0  0
   22.6180   -6.4337    0.0000 C   0  0  0  0  0  0  0  0  0  0  0  0
   23.6172   -4.7031    0.0000 O   0  0  0  0  0  0  0  0  0  0  0  0
   21.6189   -4.7031    0.0000 O   0  5  0  0  0  0  0  0  0  0  0  0
   21.6189   -7.0105    0.0000 O   0  5  0  0  0  0  0  0  0  0  0  0
   23.6172   -7.0105    0.0000 O   0  0  0  0  0  0  0  0  0  0  0  0
  1  2  1  0  0  0  0
  1  3  2  0  0  0  0
  1  4  1  0  0  0  0
  2  5  1  0  0  0  0
  2  6  2  0  0  0  0
M  CHG  2   4  -1   5  -1
M  END
$$$$
