
  ACD/LABS06062620332D

  1  0  0  0  0  0  0  0  0  0  2 V2000
   17.0016   -5.7206    0.0000 Cd  0  2  0  0  0  0  0  0  0  0  0  0
M  CHG  1   1   2
M  END
$$$$

  ACD/LABS06062620332D

  3  2  0  0  0  0  0  0  0  0  2 V2000
   24.1483   -5.6084    0.0000 C   0  0  0  0  0  0  0  0  0  0  0  0
   24.1483   -4.2784    0.0000 O   0  0  0  0  0  0  0  0  0  0  0  0
   25.3021   -6.2814    0.0000 O   0  5  0  0  0  0  0  0  0  0  0  0
  1  2  2  0  0  0  0
  1  3  1  0  0  0  0
M  CHG  1   3  -1
M  END
$$$$

  ACD/LABS06062620332D

  3  2  0  0  0  0  0  0  0  0  2 V2000
   20.6711   -5.8328    0.0000 C   0  0  0  0  0  0  0  0  0  0  0  0
   20.6711   -4.5028    0.0000 O   0  0  0  0  0  0  0  0  0  0  0  0
   21.8248   -6.5058    0.0000 O   0  5  0  0  0  0  0  0  0  0  0  0
  1  2  2  0  0  0  0
  1  3  1  0  0  0  0
M  CHG  1   3  -1
M  END
$$$$

  ACD/LABS06062620332D

  1  0  0  0  0  0  0  0  0  0  1 V2000
   14.6140   -5.6084    0.0000 O   0  0  0  0  0  0  0  0  0  0  0  0
M  END
$$$$

  ACD/LABS06062620332D

  1  0  0  0  0  0  0  0  0  0  1 V2000
   13.9570   -3.2689    0.0000 O   0  0  0  0  0  0  0  0  0  0  0  0
M  END
$$$$
