
  ACD/LABS06062620142D

  1  0  0  0  0  0  0  0  0  0  2 V2000
   17.0016   -5.7206    0.0000 Cd  0  2  0  0  0  0  0  0  0  0  0  0
M  CHG  1   1   2
M  END
$$$$

  ACD/LABS06062620142D

  5  4  0  0  0  0  0  0  0  0  2 V2000
   23.4593   -5.8488    0.0000 S   0  0  0  0  0  0  0  0  0  0  0  0
   23.4593   -4.5188    0.0000 O   0  0  0  0  0  0  0  0  0  0  0  0
   22.1293   -5.8488    0.0000 O   0  0  0  0  0  0  0  0  0  0  0  0
   24.7893   -5.8488    0.0000 O   0  5  0  0  0  0  0  0  0  0  0  0
   23.4593   -7.1788    0.0000 O   0  5  0  0  0  0  0  0  0  0  0  0
  1  2  2  0  0  0  0
  1  3  2  0  0  0  0
  1  4  1  0  0  0  0
  1  5  1  0  0  0  0
M  CHG  2   4  -1   5  -1
M  END
$$$$

  ACD/LABS06062620142D

  5  4  0  0  0  0  0  0  0  0  2 V2000
   20.0141   -8.5248    0.0000 S   0  0  0  0  0  0  0  0  0  0  0  0
   20.0141   -7.1948    0.0000 O   0  0  0  0  0  0  0  0  0  0  0  0
   18.6841   -8.5248    0.0000 O   0  0  0  0  0  0  0  0  0  0  0  0
   21.3441   -8.5248    0.0000 O   0  5  0  0  0  0  0  0  0  0  0  0
   20.0141   -9.8548    0.0000 O   0  5  0  0  0  0  0  0  0  0  0  0
  1  2  2  0  0  0  0
  1  3  2  0  0  0  0
  1  4  1  0  0  0  0
  1  5  1  0  0  0  0
M  CHG  2   4  -1   5  -1
M  END
$$$$

  ACD/LABS06062620142D

  5  4  0  0  0  0  0  0  0  0  2 V2000
    9.7766   -4.2704    0.0000 H   0  0  0  0  0  0  0  0  0  0  0  0
   10.9284   -4.9354    0.0000 N   0  3  0  0  0  0  0  0  0  0  0  0
   11.5934   -3.7836    0.0000 H   0  0  0  0  0  0  0  0  0  0  0  0
   10.2634   -6.0872    0.0000 H   0  0  0  0  0  0  0  0  0  0  0  0
   12.0803   -5.6004    0.0000 H   0  0  0  0  0  0  0  0  0  0  0  0
  1  2  1  0  0  0  0
  2  3  1  0  0  0  0
  2  4  1  0  0  0  0
  2  5  1  0  0  0  0
M  CHG  1   2   1
M  END
$$$$

  ACD/LABS06062620142D

  5  4  0  0  0  0  0  0  0  0  2 V2000
   12.3245   -7.9079    0.0000 H   0  0  0  0  0  0  0  0  0  0  0  0
   13.4763   -8.5729    0.0000 N   0  3  0  0  0  0  0  0  0  0  0  0
   14.1413   -7.4211    0.0000 H   0  0  0  0  0  0  0  0  0  0  0  0
   12.8113   -9.7247    0.0000 H   0  0  0  0  0  0  0  0  0  0  0  0
   14.6281   -9.2379    0.0000 H   0  0  0  0  0  0  0  0  0  0  0  0
  1  2  1  0  0  0  0
  2  3  1  0  0  0  0
  2  4  1  0  0  0  0
  2  5  1  0  0  0  0
M  CHG  1   2   1
M  END
$$$$

  ACD/LABS06062620142D

  1  0  0  0  0  0  0  0  0  0  1 V2000
   27.7537   -3.8778    0.0000 O   0  0  0  0  0  0  0  0  0  0  0  0
M  END
$$$$

  ACD/LABS06062620142D

  1  0  0  0  0  0  0  0  0  0  1 V2000
   27.7537   -5.4322    0.0000 O   0  0  0  0  0  0  0  0  0  0  0  0
M  END
$$$$

  ACD/LABS06062620142D

  1  0  0  0  0  0  0  0  0  0  1 V2000
   27.4012   -6.9705    0.0000 O   0  0  0  0  0  0  0  0  0  0  0  0
M  END
$$$$

  ACD/LABS06062620142D

  1  0  0  0  0  0  0  0  0  0  1 V2000
   27.1769   -8.6210    0.0000 O   0  0  0  0  0  0  0  0  0  0  0  0
M  END
$$$$

  ACD/LABS06062620142D

  1  0  0  0  0  0  0  0  0  0  1 V2000
   27.1448  -10.0311    0.0000 O   0  0  0  0  0  0  0  0  0  0  0  0
M  END
$$$$

  ACD/LABS06062620142D

  1  0  0  0  0  0  0  0  0  0  1 V2000
   26.7442  -11.4893    0.0000 O   0  0  0  0  0  0  0  0  0  0  0  0
M  END
$$$$
