
  ACD/LABS06062620102D

  1  0  0  0  0  0  0  0  0  0  2 V2000
   17.8348   -6.2174    0.0000 Cd  0  2  0  0  0  0  0  0  0  0  0  0
M  CHG  1   1   2
M  END
$$$$

  ACD/LABS06062620102D

  4  3  0  0  0  0  0  0  0  0  2 V2000
   23.1388   -5.8167    0.0000 N   0  3  0  0  0  0  0  0  0  0  0  0
   23.1388   -4.4867    0.0000 O   0  0  0  0  0  0  0  0  0  0  0  0
   24.2925   -6.4898    0.0000 O   0  5  0  0  0  0  0  0  0  0  0  0
   21.9851   -6.4898    0.0000 O   0  5  0  0  0  0  0  0  0  0  0  0
  1  2  2  0  0  0  0
  1  3  1  0  0  0  0
  1  4  1  0  0  0  0
M  CHG  3   1   1   3  -1   4  -1
M  END
$$$$

  ACD/LABS06062620102D

  4  3  0  0  0  0  0  0  0  0  2 V2000
   22.9465   -8.8293    0.0000 N   0  3  0  0  0  0  0  0  0  0  0  0
   22.9465   -7.4993    0.0000 O   0  0  0  0  0  0  0  0  0  0  0  0
   24.1002   -9.5023    0.0000 O   0  5  0  0  0  0  0  0  0  0  0  0
   21.7928   -9.5023    0.0000 O   0  5  0  0  0  0  0  0  0  0  0  0
  1  2  2  0  0  0  0
  1  3  1  0  0  0  0
  1  4  1  0  0  0  0
M  CHG  3   1   1   3  -1   4  -1
M  END
$$$$

  ACD/LABS06062620102D

  1  0  0  0  0  0  0  0  0  0  1 V2000
   15.1107   -4.7111    0.0000 O   0  0  0  0  0  0  0  0  0  0  0  0
M  END
$$$$

  ACD/LABS06062620102D

  1  0  0  0  0  0  0  0  0  0  1 V2000
   15.0627   -6.3455    0.0000 O   0  0  0  0  0  0  0  0  0  0  0  0
M  END
$$$$

  ACD/LABS06062620102D

  1  0  0  0  0  0  0  0  0  0  1 V2000
   14.9986   -7.8037    0.0000 O   0  0  0  0  0  0  0  0  0  0  0  0
M  END
$$$$

  ACD/LABS06062620102D

  1  0  0  0  0  0  0  0  0  0  1 V2000
   14.8063   -8.7492    0.0000 O   0  0  0  0  0  0  0  0  0  0  0  0
M  END
$$$$
