
  ACD/LABS06062620192D

  1  0  0  0  0  0  0  0  0  0  2 V2000
   17.0016   -5.7206    0.0000 Cd  0  2  0  0  0  0  0  0  0  0  0  0
M  CHG  1   1   2
M  END
$$$$

  ACD/LABS06062620192D

  4  3  0  0  0  0  0  0  0  0  2 V2000
   22.1533   -4.0821    0.0000 N   0  3  0  0  0  0  0  0  0  0  0  0
   23.3051   -4.7471    0.0000 O   0  0  0  0  0  0  0  0  0  0  0  0
   22.1533   -2.7521    0.0000 O   0  5  0  0  0  0  0  0  0  0  0  0
   21.0015   -4.7471    0.0000 O   0  5  0  0  0  0  0  0  0  0  0  0
  1  2  2  0  0  0  0
  1  3  1  0  0  0  0
  1  4  1  0  0  0  0
M  CHG  3   1   1   3  -1   4  -1
M  END
$$$$

  ACD/LABS06062620192D

  4  3  0  0  0  0  0  0  0  0  2 V2000
   22.1373   -7.0786    0.0000 N   0  3  0  0  0  0  0  0  0  0  0  0
   23.2891   -7.7436    0.0000 O   0  0  0  0  0  0  0  0  0  0  0  0
   22.1373   -5.7486    0.0000 O   0  5  0  0  0  0  0  0  0  0  0  0
   20.9855   -7.7436    0.0000 O   0  5  0  0  0  0  0  0  0  0  0  0
  1  2  2  0  0  0  0
  1  3  1  0  0  0  0
  1  4  1  0  0  0  0
M  CHG  3   1   1   3  -1   4  -1
M  END
$$$$
