
  ACD/LABS06062620022D

  1  0  0  0  0  0  0  0  0  0  2 V2000
   17.0016   -5.7206    0.0000 Cd  0  2  0  0  0  0  0  0  0  0  0  0
M  CHG  1   1   2
M  END
$$$$

  ACD/LABS06062620022D

  1  0  0  0  0  0  0  0  0  0  2 V2000
   22.0812   -4.6790    0.0000 O   0  5  0  0  0  0  0  0  0  0  0  0
M  CHG  1   1  -1
M  END
$$$$

  ACD/LABS06062620022D

  1  0  0  0  0  0  0  0  0  0  2 V2000
   21.9370   -6.3455    0.0000 O   0  5  0  0  0  0  0  0  0  0  0  0
M  CHG  1   1  -1
M  END
$$$$
