
  ACD/LABS06062620412D

  1  0  0  0  0  0  0  0  0  0  2 V2000
   17.0016   -5.7206    0.0000 Cd  0  2  0  0  0  0  0  0  0  0  0  0
M  CHG  1   1   2
M  END
$$$$

  ACD/LABS06062620412D

  8  7  0  0  0  0  0  0  0  0  2 V2000
   21.6128   -5.4362    0.0000 C   0  0  0  0  0  0  0  0  0  0  0  0
   21.9716   -6.7121    0.0000 O   0  0  0  0  0  0  0  0  0  0  0  0
   20.2586   -5.2583    0.0000 O   0  5  0  0  0  0  0  0  0  0  0  0
   22.2778   -4.2844    0.0000 C   0  0  0  0  0  0  0  0  0  0  0  0
   23.6166   -4.3083    0.0000 C   0  0  0  0  0  0  0  0  0  0  0  0
   24.3676   -5.3951    0.0000 C   0  0  0  0  0  0  0  0  0  0  0  0
   25.7145   -5.1831    0.0000 O   0  0  0  0  0  0  0  0  0  0  0  0
   24.0337   -6.6826    0.0000 O   0  5  0  0  0  0  0  0  0  0  0  0
  1  2  2  0  0  0  0
  1  3  1  0  0  0  0
  1  4  1  0  0  0  0
  4  5  1  0  0  0  0
  6  7  2  0  0  0  0
  6  8  1  0  0  0  0
  5  6  1  0  0  0  0
M  CHG  2   3  -1   8  -1
M  END
$$$$
