
  ACD/LABS06062620372D

  1  0  0  0  0  0  0  0  0  0  2 V2000
   17.0016   -5.7206    0.0000 Cd  0  2  0  0  0  0  0  0  0  0  0  0
M  CHG  1   1   2
M  END
$$$$

  ACD/LABS06062620372D

  7  6  0  0  0  0  0  0  0  0  2 V2000
   21.8348   -5.7246    0.0000 C   0  0  0  0  0  0  0  0  0  0  0  0
   21.8348   -4.3946    0.0000 O   0  0  0  0  0  0  0  0  0  0  0  0
   20.6829   -6.3896    0.0000 O   0  5  0  0  0  0  0  0  0  0  0  0
   22.9866   -6.3896    0.0000 C   0  0  0  0  0  0  0  0  0  0  0  0
   24.1384   -5.7246    0.0000 C   0  0  0  0  0  0  0  0  0  0  0  0
   24.1384   -4.3946    0.0000 O   0  0  0  0  0  0  0  0  0  0  0  0
   25.2902   -6.3896    0.0000 O   0  5  0  0  0  0  0  0  0  0  0  0
  1  2  2  0  0  0  0
  1  3  1  0  0  0  0
  1  4  1  0  0  0  0
  5  6  2  0  0  0  0
  5  7  1  0  0  0  0
  4  5  1  0  0  0  0
M  CHG  2   3  -1   7  -1
M  END
$$$$

  ACD/LABS06062620372D

  1  0  0  0  0  0  0  0  0  0  1 V2000
   18.0271   -7.1628    0.0000 O   0  0  0  0  0  0  0  0  0  0  0  0
M  END
$$$$

  ACD/LABS06062620372D

  1  0  0  0  0  0  0  0  0  0  1 V2000
   18.8123   -7.7076    0.0000 O   0  0  0  0  0  0  0  0  0  0  0  0
M  END
$$$$
