
  ACD/LABS06062620062D

  1  0  0  0  0  0  0  0  0  0  2 V2000
   17.0016   -5.7206    0.0000 Cd  0  2  0  0  0  0  0  0  0  0  0  0
M  CHG  1   1   2
M  END
$$$$

  ACD/LABS06062620062D

  5  4  0  0  0  0  0  0  0  0  2 V2000
   23.4593   -5.8488    0.0000 S   0  0  0  0  0  0  0  0  0  0  0  0
   23.4593   -4.5188    0.0000 O   0  0  0  0  0  0  0  0  0  0  0  0
   23.4593   -7.1788    0.0000 O   0  0  0  0  0  0  0  0  0  0  0  0
   24.7893   -5.8488    0.0000 O   0  5  0  0  0  0  0  0  0  0  0  0
   22.1293   -5.8488    0.0000 O   0  5  0  0  0  0  0  0  0  0  0  0
  1  2  2  0  0  0  0
  1  3  2  0  0  0  0
  1  4  1  0  0  0  0
  1  5  1  0  0  0  0
M  CHG  2   4  -1   5  -1
M  END
$$$$

  ACD/LABS06062620062D

  1  0  0  0  0  0  0  0  0  0  1 V2000
   20.9435   -4.0220    0.0000 O   0  0  0  0  0  0  0  0  0  0  0  0
M  END
$$$$
