
  ACD/LABS06062620292D

  1  0  0  0  0  0  0  0  0  0  2 V2000
   17.0016   -5.7206    0.0000 Cd  0  2  0  0  0  0  0  0  0  0  0  0
M  CHG  1   1   2
M  END
$$$$

  ACD/LABS06062620292D

  1  0  0  0  0  0  0  0  0  0  2 V2000
   17.3381   -7.4993    0.0000 Cd  0  2  0  0  0  0  0  0  0  0  0  0
M  CHG  1   1   2
M  END
$$$$

  ACD/LABS06062620292D

  1  0  0  0  0  0  0  0  0  0  2 V2000
   17.2900   -9.0857    0.0000 Cd  0  2  0  0  0  0  0  0  0  0  0  0
M  CHG  1   1   2
M  END
$$$$

  ACD/LABS06062620292D

  5  4  0  0  0  0  0  0  0  0  2 V2000
   24.1323   -5.2078    0.0000 P   0  0  0  0  0  0  0  0  0  0  0  0
   24.1323   -3.8778    0.0000 O   0  0  0  0  0  0  0  0  0  0  0  0
   25.4623   -5.2078    0.0000 O   0  5  0  0  0  0  0  0  0  0  0  0
   24.1323   -6.5378    0.0000 O   0  5  0  0  0  0  0  0  0  0  0  0
   22.8023   -5.2078    0.0000 O   0  5  0  0  0  0  0  0  0  0  0  0
  1  2  2  0  0  0  0
  1  3  1  0  0  0  0
  1  4  1  0  0  0  0
  1  5  1  0  0  0  0
M  CHG  3   3  -1   4  -1   5  -1
M  END
$$$$

  ACD/LABS06062620292D

  5  4  0  0  0  0  0  0  0  0  2 V2000
   24.1643   -8.8293    0.0000 P   0  0  0  0  0  0  0  0  0  0  0  0
   24.1643   -7.4993    0.0000 O   0  0  0  0  0  0  0  0  0  0  0  0
   25.4943   -8.8293    0.0000 O   0  5  0  0  0  0  0  0  0  0  0  0
   24.1643  -10.1593    0.0000 O   0  5  0  0  0  0  0  0  0  0  0  0
   22.8343   -8.8293    0.0000 O   0  5  0  0  0  0  0  0  0  0  0  0
  1  2  2  0  0  0  0
  1  3  1  0  0  0  0
  1  4  1  0  0  0  0
  1  5  1  0  0  0  0
M  CHG  3   3  -1   4  -1   5  -1
M  END
$$$$
