
  ACD/LABS06062620252D

  1  0  0  0  0  0  0  0  0  0  2 V2000
   17.0016   -5.7206    0.0000 Cd  0  2  0  0  0  0  0  0  0  0  0  0
M  CHG  1   1   2
M  END
$$$$

  ACD/LABS06062620252D

  1  0  0  0  0  0  0  0  0  0  2 V2000
   21.8409   -6.0731    0.0000 W   0  0  0  0  0  0  0  0  0  0  0  0
M  CHG  1   1   6
M  END
$$$$

  ACD/LABS06062620252D

  1  0  0  0  0  0  0  0  0  0  2 V2000
   21.9690   -4.3586    0.0000 O   0  6  0  0  0  0  0  0  0  0  0  0
M  CHG  1   1  -2
M  END
$$$$

  ACD/LABS06062620252D

  1  0  0  0  0  0  0  0  0  0  2 V2000
   21.8569   -7.7236    0.0000 O   0  6  0  0  0  0  0  0  0  0  0  0
M  CHG  1   1  -2
M  END
$$$$

  ACD/LABS06062620252D

  1  0  0  0  0  0  0  0  0  0  2 V2000
   23.8118   -6.0090    0.0000 O   0  6  0  0  0  0  0  0  0  0  0  0
M  CHG  1   1  -2
M  END
$$$$

  ACD/LABS06062620252D

  1  0  0  0  0  0  0  0  0  0  2 V2000
   19.8699   -5.7206    0.0000 O   0  6  0  0  0  0  0  0  0  0  0  0
M  CHG  1   1  -2
M  END
$$$$
