
  ACD/LABS06062619242D

  1  0  0  0  0  0  0  0  0  0  2 V2000
   19.4372   -6.4096    0.0000 Br  0  5  0  0  0  0  0  0  0  0  0  0
M  CHG  1   1  -1
M  END
$$$$

  ACD/LABS06062619242D

  1  0  0  0  0  0  0  0  0  0  2 V2000
   17.0016   -5.7206    0.0000 Cd  0  2  0  0  0  0  0  0  0  0  0  0
M  CHG  1   1   2
M  END
$$$$

  ACD/LABS06062619242D

  1  0  0  0  0  0  0  0  0  0  2 V2000
   19.4372   -4.3586    0.0000 Br  0  5  0  0  0  0  0  0  0  0  0  0
M  CHG  1   1  -1
M  END
$$$$
