
  ACD/LABS06062619282D

  1  0  0  0  0  0  0  0  0  0  2 V2000
   19.4372   -6.4096    0.0000 Br  0  5  0  0  0  0  0  0  0  0  0  0
M  CHG  1   1  -1
M  END
$$$$

  ACD/LABS06062619282D

  1  0  0  0  0  0  0  0  0  0  2 V2000
   17.0016   -5.7206    0.0000 Cd  0  2  0  0  0  0  0  0  0  0  0  0
M  CHG  1   1   2
M  END
$$$$

  ACD/LABS06062619282D

  1  0  0  0  0  0  0  0  0  0  2 V2000
   19.4372   -4.3586    0.0000 Br  0  5  0  0  0  0  0  0  0  0  0  0
M  CHG  1   1  -1
M  END
$$$$

  ACD/LABS06062619282D

  1  0  0  0  0  0  0  0  0  0  1 V2000
   22.2575   -3.9099    0.0000 O   0  0  0  0  0  0  0  0  0  0  0  0
M  END
$$$$

  ACD/LABS06062619282D

  1  0  0  0  0  0  0  0  0  0  1 V2000
   22.1453   -5.0155    0.0000 O   0  0  0  0  0  0  0  0  0  0  0  0
M  END
$$$$

  ACD/LABS06062619282D

  1  0  0  0  0  0  0  0  0  0  1 V2000
   22.1934   -6.3616    0.0000 O   0  0  0  0  0  0  0  0  0  0  0  0
M  END
$$$$

  ACD/LABS06062619282D

  1  0  0  0  0  0  0  0  0  0  1 V2000
   21.9690   -7.8037    0.0000 O   0  0  0  0  0  0  0  0  0  0  0  0
M  END
$$$$
