
  ACD/LABS06062619482D

  1  0  0  0  0  0  0  0  0  0  2 V2000
   17.0016   -5.7206    0.0000 Cd  0  2  0  0  0  0  0  0  0  0  0  0
M  CHG  1   1   2
M  END
$$$$

  ACD/LABS06062619482D

  1  0  0  0  0  0  0  0  0  0  2 V2000
   20.2064   -4.2784    0.0000 Cl  0  5  0  0  0  0  0  0  0  0  0  0
M  CHG  1   1  -1
M  END
$$$$

  ACD/LABS06062619482D

  1  0  0  0  0  0  0  0  0  0  2 V2000
   19.5654   -5.9129    0.0000 Cl  0  5  0  0  0  0  0  0  0  0  0  0
M  CHG  1   1  -1
M  END
$$$$
