
  ACD/LABS06062619322D

  1  0  0  0  0  0  0  0  0  0  2 V2000
   17.0016   -5.7206    0.0000 Cd  0  2  0  0  0  0  0  0  0  0  0  0
M  CHG  1   1   2
M  END
$$$$

  ACD/LABS06062619322D

  4  3  0  0  0  0  0  0  0  0  2 V2000
   22.2655   -5.5003    0.0000 C   0  0  0  0  0  0  0  0  0  0  0  0
   22.2655   -4.1703    0.0000 O   0  5  0  0  0  0  0  0  0  0  0  0
   23.4173   -6.1653    0.0000 O   0  5  0  0  0  0  0  0  0  0  0  0
   21.1137   -6.1653    0.0000 O   0  0  0  0  0  0  0  0  0  0  0  0
  1  2  1  0  0  0  0
  1  3  1  0  0  0  0
  1  4  2  0  0  0  0
M  CHG  2   2  -1   3  -1
M  END
$$$$
