
  ACD/LABS06062620012D

  1  0  0  0  0  0  0  0  0  0  2 V2000
   17.0016   -5.7206    0.0000 Cd  0  2  0  0  0  0  0  0  0  0  0  0
M  CHG  1   1   2
M  END
$$$$

  ACD/LABS06062620012D

  1  0  0  0  0  0  0  0  0  0  2 V2000
   20.6390   -4.8713    0.0000 F   0  5  0  0  0  0  0  0  0  0  0  0
M  CHG  1   1  -1
M  END
$$$$

  ACD/LABS06062620012D

  1  0  0  0  0  0  0  0  0  0  2 V2000
   20.1904   -6.9224    0.0000 F   0  5  0  0  0  0  0  0  0  0  0  0
M  CHG  1   1  -1
M  END
$$$$
