
  ACD/LABS06062620272D

  1  0  0  0  0  0  0  0  0  0  2 V2000
   17.0016   -5.7206    0.0000 Cd  0  2  0  0  0  0  0  0  0  0  0  0
M  CHG  1   1   2
M  END
$$$$

  ACD/LABS06062620272D

  1  0  0  0  0  0  0  0  0  0  2 V2000
   20.1583   -5.5443    0.0000 S   0  6  0  0  0  0  0  0  0  0  0  0
M  CHG  1   1  -2
M  END
$$$$
