
  ACD/LABS05232614232D

  6  5  0  0  0  0  0  0  0  0  1 V2000
   20.6070   -9.4382    0.0000 B   0  0  0  0  0  0  0  0  0  0  0  0
   21.8569  -10.3035    0.0000 C   0  0  0  0  0  0  0  0  0  0  0  0
   23.3311   -9.4382    0.0000 C   0  0  0  0  0  0  0  0  0  0  0  0
   24.5970  -10.3035    0.0000 C   0  0  0  0  0  0  0  0  0  0  0  0
   20.3827   -7.5634    0.0000 O   0  0  0  0  0  0  0  0  0  0  0  0
   18.9245  -10.0631    0.0000 O   0  0  0  0  0  0  0  0  0  0  0  0
  1  2  1  0  0  0  0
  2  3  1  0  0  0  0
  3  4  1  0  0  0  0
  1  5  1  0  0  0  0
  1  6  1  0  0  0  0
M  END
$$$$
