
  ACD/LABS05252612132D

  3  2  0  0  0  0  0  0  0  0  1 V2000
   17.6525   -8.1042    0.0000 C   0  0  0  0  0  0  0  0  0  0  0  0
   18.8043   -8.7692    0.0000 C   0  0  0  0  0  0  0  0  0  0  0  0
   18.8123  -10.0952    0.0000 Cl  0  0  0  0  0  0  0  0  0  0  0  0
  1  2  2  0  0  0  0
  2  3  1  0  0  0  0
M  END
$$$$
