
  ACD/LABS05252612392D

  5  4  0  0  0  0  0  0  0  0  1 V2000
   19.2490   -8.0201    0.0000 C   0  0  0  0  0  0  0  0  0  0  0  0
   19.9140   -9.1719    0.0000 F   0  0  0  0  0  0  0  0  0  0  0  0
   20.4008   -7.3551    0.0000 F   0  0  0  0  0  0  0  0  0  0  0  0
   18.0971   -8.6851    0.0000 Cl  0  0  0  0  0  0  0  0  0  0  0  0
   18.5840   -6.8682    0.0000 F   0  0  0  0  0  0  0  0  0  0  0  0
  1  2  1  0  0  0  0
  1  3  1  0  0  0  0
  1  4  1  0  0  0  0
  1  5  1  0  0  0  0
M  END
$$$$
