
  ACD/LABS05252612382D

  6  5  0  0  0  0  0  0  0  0  1 V2000
   18.1874   -8.0201    0.0000 C   0  0  0  0  0  0  0  0  0  0  0  0
   19.5174   -8.0201    0.0000 C   0  0  0  0  0  0  0  0  0  0  0  0
   20.1824   -9.1719    0.0000 F   0  0  0  0  0  0  0  0  0  0  0  0
   20.1824   -6.8682    0.0000 F   0  0  0  0  0  0  0  0  0  0  0  0
   17.5224   -9.1719    0.0000 F   0  0  0  0  0  0  0  0  0  0  0  0
   17.5224   -6.8682    0.0000 Cl  0  0  0  0  0  0  0  0  0  0  0  0
  1  2  2  0  0  0  0
  2  3  1  0  0  0  0
  2  4  1  0  0  0  0
  1  5  1  0  0  0  0
  1  6  1  0  0  0  0
M  END
$$$$
