
  ACD/LABS05252612413D

 18 21  0  0  0  0  0  0  0  0  1 V2000
   17.9611   -8.9815    0.0000 C   0  0  0  0  0  0  0  0  0  0  0  0
   17.9611  -10.3115    0.0000 C   0  0  0  0  0  0  0  0  0  0  0  0
   16.8092   -8.3165    0.0000 C   0  0  0  0  0  0  0  0  0  0  0  0
   16.8092  -10.9765    0.0000 C   0  0  0  0  0  0  0  0  0  0  0  0
   15.6574   -8.9815    0.0000 C   0  0  0  0  0  0  0  0  0  0  0  0
   15.6574  -10.3115    0.0000 C   0  0  0  0  0  0  0  0  0  0  0  0
   19.1129   -8.3166    0.0000 C   0  0  0  0  0  0  0  0  0  0  0  0
   20.2647   -8.9817    0.0000 C   0  0  0  0  0  0  0  0  0  0  0  0
   19.1128  -10.9765    0.0000 C   0  0  0  0  0  0  0  0  0  0  0  0
   20.2646  -10.3116    0.0000 C   0  0  0  0  0  0  0  0  0  0  0  0
   19.1130   -6.9867    0.0000 C   0  0  0  0  0  0  0  0  0  0  0  0
   20.2649   -6.3218    0.0000 C   0  0  0  0  0  0  0  0  0  0  0  0
   21.4164   -8.3168    0.0000 C   0  0  0  0  0  0  0  0  0  0  0  0
   21.4166   -6.9869    0.0000 C   0  0  0  0  0  0  0  0  0  0  0  0
   22.5681   -8.9818    0.0000 C   0  0  0  0  0  0  0  0  0  0  0  0
   23.7198   -8.3169    0.0000 C   0  0  0  0  0  0  0  0  0  0  0  0
   22.5683   -6.3221    0.0000 C   0  0  0  0  0  0  0  0  0  0  0  0
   23.7199   -6.9871    0.0000 C   0  0  0  0  0  0  0  0  0  0  0  0
  1  3  2  0  0  0  0
  2  4  2  0  0  0  0
  3  5  1  0  0  0  0
  4  6  1  0  0  0  0
  5  6  2  0  0  0  0
  1  7  1  0  0  0  0
  1  2  1  0  0  0  0
  2  9  1  0  0  0  0
  8 10  1  0  0  0  0
  9 10  2  0  0  0  0
  7 11  1  0  0  0  0
  7  8  2  0  0  0  0
 11 12  2  0  0  0  0
  8 13  1  0  0  0  0
 12 14  1  0  0  0  0
 13 15  1  0  0  0  0
 13 14  2  0  0  0  0
 15 16  2  0  0  0  0
 14 17  1  0  0  0  0
 16 18  1  0  0  0  0
 17 18  2  0  0  0  0
M  END
$$$$
