
  ACD/LABS06052617572D

 20 19  0  0  0  0  0  0  0  0  1 V2000
   11.9697   -7.4552    0.0000 C   0  0  0  0  0  0  0  0  0  0  0  0
   13.1215   -6.7902    0.0000 C   0  0  0  0  0  0  0  0  0  0  0  0
   14.2733   -7.4552    0.0000 C   0  0  0  0  0  0  0  0  0  0  0  0
   15.4251   -6.7902    0.0000 C   0  0  0  0  0  0  0  0  0  0  0  0
   16.5769   -7.4552    0.0000 C   0  0  0  0  0  0  0  0  0  0  0  0
   17.7287   -6.7902    0.0000 C   0  0  0  0  0  0  0  0  0  0  0  0
   18.8806   -7.4552    0.0000 C   0  0  0  0  0  0  0  0  0  0  0  0
   20.0324   -6.7902    0.0000 C   0  0  0  0  0  0  0  0  0  0  0  0
   21.1842   -7.4552    0.0000 C   0  0  0  0  0  0  0  0  0  0  0  0
   11.9700   -8.7812    0.0000 O   0  0  0  0  0  0  0  0  0  0  0  0
   10.8163   -6.7942    0.0000 O   0  0  0  0  0  0  0  0  0  0  0  0
   21.1839   -8.7812    0.0000 C   0  0  0  0  0  0  0  0  0  0  0  0
   20.0301   -9.4542    0.0000 C   0  0  0  0  0  0  0  0  0  0  0  0
   20.0301  -10.7842    0.0000 C   0  0  0  0  0  0  0  0  0  0  0  0
   18.8764  -11.4412    0.0000 C   0  0  0  0  0  0  0  0  0  0  0  0
   18.8764  -12.7712    0.0000 C   0  0  0  0  0  0  0  0  0  0  0  0
   17.7227  -13.4282    0.0000 C   0  0  0  0  0  0  0  0  0  0  0  0
   17.7227  -14.7582    0.0000 C   0  0  0  0  0  0  0  0  0  0  0  0
   16.5689  -15.4312    0.0000 C   0  0  0  0  0  0  0  0  0  0  0  0
   16.5689  -16.7612    0.0000 C   0  0  0  0  0  0  0  0  0  0  0  0
  1  2  1  0  0  0  0
  2  3  1  0  0  0  0
  3  4  1  0  0  0  0
  4  5  1  0  0  0  0
  5  6  1  0  0  0  0
  6  7  1  0  0  0  0
  7  8  1  0  0  0  0
  8  9  1  0  0  0  0
  1 10  2  0  0  0  0
  1 11  1  0  0  0  0
  9 12  2  0  0  0  0
 12 13  1  0  0  0  0
 13 14  1  0  0  0  0
 14 15  1  0  0  0  0
 15 16  1  0  0  0  0
 16 17  1  0  0  0  0
 17 18  1  0  0  0  0
 18 19  1  0  0  0  0
 19 20  1  0  0  0  0
M  END
$$$$
