
  ACD/LABS05252611222D

  4  3  0  0  0  0  0  0  0  0  1 V2000
   21.6961   -7.7217    0.0000 C   0  0  0  0  0  0  0  0  0  0  0  0
   21.0382   -8.8598    0.0000 C   0  0  0  0  0  0  0  0  0  0  0  0
   19.7082   -8.8666    0.0000 C   0  0  0  0  0  0  0  0  0  0  0  0
   21.0382   -6.5658    0.0000 C   0  0  0  0  0  0  0  0  0  0  0  0
  1  2  2  0  0  0  0
  2  3  1  0  0  0  0
  1  4  1  0  0  0  0
M  END
$$$$
