
  ACD/LABS05262610492D

 12 13  0  0  1  0  0  0  0  0  1 V2000
   18.1855   -6.0972    0.0000 C   0  0  0  0  0  0  0  0  0  0  0  0
   18.1855   -7.4272    0.0000 C   0  0  0  0  0  0  0  0  0  0  0  0
   17.0336   -5.4322    0.0000 C   0  0  0  0  0  0  0  0  0  0  0  0
   17.0336   -8.0922    0.0000 C   0  0  0  0  0  0  0  0  0  0  0  0
   15.8818   -6.0972    0.0000 C   0  0  0  0  0  0  0  0  0  0  0  0
   15.8818   -7.4272    0.0000 C   0  0  0  0  0  0  0  0  0  0  0  0
   19.3372   -5.4322    0.0000 C   0  0  0  0  0  0  0  0  0  0  0  0
   20.4890   -6.0973    0.0000 C   0  0  0  0  0  0  0  0  0  0  0  0
   19.3372   -8.0921    0.0000 C   0  0  0  0  0  0  0  0  0  0  0  0
   20.4889   -7.4272    0.0000 C   0  0  0  0  0  0  0  0  0  0  0  0
   18.1874   -8.7652    0.0000 H   0  0  0  0  0  0  0  0  0  0  0  0
   18.1874   -4.7752    0.0000 H   0  0  0  0  0  0  0  0  0  0  0  0
  1  3  1  0  0  0  0
  2  4  1  0  0  0  0
  3  5  1  0  0  0  0
  4  6  1  0  0  0  0
  5  6  1  0  0  0  0
  1  7  1  0  0  0  0
  1  2  1  0  0  0  0
  7  8  1  0  0  0  0
  2  9  1  0  0  0  0
  8 10  1  0  0  0  0
  9 10  1  0  0  0  0
  2 11  1  1  0  0  0
  1 12  1  1  0  0  0
M  END
$$$$
