
  ACD/LABS05252612452D

  3  2  0  0  0  0  0  0  0  0  1 V2000
   19.0527   -7.7236    0.0000 N   0  0  0  0  0  0  0  0  0  0  0  0
   19.9981   -6.7782    0.0000 C   0  0  0  0  0  0  0  0  0  0  0  0
   20.9435   -5.8328    0.0000 N   0  0  0  0  0  0  0  0  0  0  0  0
  1  2  1  0  0  0  0
  2  3  3  0  0  0  0
M  END
$$$$
