
  ACD/LABS05262610352D

  3  3  0  0  0  0  0  0  0  0  1 V2000
   19.6616   -5.9039    0.0000 C   0  0  0  0  0  0  0  0  0  0  0  0
   18.3316   -5.9039    0.0000 C   0  0  0  0  0  0  0  0  0  0  0  0
   18.9966   -4.7521    0.0000 C   0  0  0  0  0  0  0  0  0  0  0  0
  1  2  1  0  0  0  0
  2  3  1  0  0  0  0
  3  1  1  0  0  0  0
M  END
$$$$
