
  ACD/LABS05252612502D

  4  4  0  0  0  0  0  0  0  0  1 V2000
   20.2865   -4.5749    0.0000 C   0  0  0  0  0  0  0  0  0  0  0  0
   21.7287   -4.5749    0.0000 C   0  0  0  0  0  0  0  0  0  0  0  0
   21.7287   -6.0171    0.0000 C   0  0  0  0  0  0  0  0  0  0  0  0
   20.2865   -6.0171    0.0000 C   0  0  0  0  0  0  0  0  0  0  0  0
  1  2  1  0  0  0  0
  2  3  1  0  0  0  0
  3  4  1  0  0  0  0
  4  1  1  0  0  0  0
M  END
$$$$
