
  ACD/LABS05252612512D

  7  7  0  0  0  0  0  0  0  0  1 V2000
   19.8195   -7.7396    0.0000 C   0  0  0  0  0  0  0  0  0  0  0  0
   18.7546   -6.8904    0.0000 C   0  0  0  0  0  0  0  0  0  0  0  0
   18.7546   -5.5283    0.0000 C   0  0  0  0  0  0  0  0  0  0  0  0
   19.8195   -4.6791    0.0000 C   0  0  0  0  0  0  0  0  0  0  0  0
   21.1474   -4.9822    0.0000 C   0  0  0  0  0  0  0  0  0  0  0  0
   21.7383   -6.2093    0.0000 C   0  0  0  0  0  0  0  0  0  0  0  0
   21.1474   -7.4365    0.0000 C   0  0  0  0  0  0  0  0  0  0  0  0
  1  2  1  0  0  0  0
  2  3  1  0  0  0  0
  3  4  1  0  0  0  0
  4  5  1  0  0  0  0
  5  6  1  0  0  0  0
  6  7  1  0  0  0  0
  7  1  1  0  0  0  0
M  END
$$$$
