
  ACD/LABS05252613002D

  8  8  0  0  0  0  0  0  0  0  1 V2000
   19.6360   -4.7818    0.0000 C   0  0  0  0  0  0  0  0  0  0  0  0
   20.6885   -5.0638    0.0000 C   0  0  0  0  0  0  0  0  0  0  0  0
   21.2333   -6.0075    0.0000 C   0  0  0  0  0  0  0  0  0  0  0  0
   18.6923   -5.3266    0.0000 C   0  0  0  0  0  0  0  0  0  0  0  0
   18.4103   -6.3791    0.0000 C   0  0  0  0  0  0  0  0  0  0  0  0
   18.9551   -7.3228    0.0000 C   0  0  0  0  0  0  0  0  0  0  0  0
   20.0076   -7.6048    0.0000 C   0  0  0  0  0  0  0  0  0  0  0  0
   20.9513   -7.0600    0.0000 C   0  0  0  0  0  0  0  0  0  0  0  0
  1  2  1  0  0  0  0
  2  3  1  0  0  0  0
  1  4  1  0  0  0  0
  4  5  1  0  0  0  0
  5  6  1  0  0  0  0
  6  7  1  0  0  0  0
  7  8  1  0  0  0  0
  8  3  1  0  0  0  0
M  END
$$$$
