
  ACD/LABS05252612572D

  7  7  0  0  0  0  0  0  0  0  1 V2000
   19.5635   -6.2093    0.0000 C   0  0  0  0  0  0  0  0  0  0  0  0
   19.5635   -7.5393    0.0000 C   0  0  0  0  0  0  0  0  0  0  0  0
   18.4116   -5.5443    0.0000 C   0  0  0  0  0  0  0  0  0  0  0  0
   18.4116   -8.2043    0.0000 C   0  0  0  0  0  0  0  0  0  0  0  0
   17.2598   -6.2093    0.0000 C   0  0  0  0  0  0  0  0  0  0  0  0
   17.2598   -7.5393    0.0000 C   0  0  0  0  0  0  0  0  0  0  0  0
   18.4117   -4.2143    0.0000 O   0  0  0  0  0  0  0  0  0  0  0  0
  1  2  1  0  0  0  0
  1  3  1  0  0  0  0
  2  4  1  0  0  0  0
  3  5  1  0  0  0  0
  4  6  1  0  0  0  0
  5  6  1  0  0  0  0
  3  7  2  0  0  0  0
M  END
$$$$
