
  ACD/LABS05262610312D

  6  6  0  0  0  0  0  0  0  0  1 V2000
   22.2551   -7.5609    0.0000 C   0  0  0  0  0  0  0  0  0  0  0  0
   23.3318   -6.7801    0.0000 C   0  0  0  0  0  0  0  0  0  0  0  0
   22.6650   -8.8262    0.0000 C   0  0  0  0  0  0  0  0  0  0  0  0
   24.4071   -7.5628    0.0000 C   0  0  0  0  0  0  0  0  0  0  0  0
   23.9952   -8.8274    0.0000 C   0  0  0  0  0  0  0  0  0  0  0  0
   23.3311   -5.4482    0.0000 O   0  0  0  0  0  0  0  0  0  0  0  0
  1  2  1  0  0  0  0
  1  3  1  0  0  0  0
  2  4  1  0  0  0  0
  3  5  1  0  0  0  0
  4  5  1  0  0  0  0
  2  6  2  0  0  0  0
M  END
$$$$
