
  ACD/LABS05292610522D

 12 11  0  0  1  0  0  0  0  0  1 V2000
   15.7735   -7.5914    0.0000 C   0  0  0  0  0  0  0  0  0  0  0  0
   16.9253   -6.9264    0.0000 C   0  0  0  0  0  0  0  0  0  0  0  0
   18.0771   -7.5914    0.0000 C   0  0  0  0  0  0  0  0  0  0  0  0
   19.2289   -6.9264    0.0000 C   0  0  0  0  0  0  0  0  0  0  0  0
   20.3807   -7.5914    0.0000 C   0  0  0  0  0  0  0  0  0  0  0  0
   21.5326   -6.9264    0.0000 C   0  0  0  0  0  0  0  0  0  0  0  0
   15.7735   -8.9214    0.0000 O   0  0  0  0  0  0  0  0  0  0  0  0
   22.6844   -7.5914    0.0000 O   0  0  0  0  0  0  0  0  0  0  0  0
   16.9253   -5.5964    0.0000 O   0  0  0  0  0  0  0  0  0  0  0  0
   18.0771   -8.9214    0.0000 O   0  0  0  0  0  0  0  0  0  0  0  0
   19.2289   -5.5964    0.0000 O   0  0  0  0  0  0  0  0  0  0  0  0
   20.3807   -8.9214    0.0000 O   0  0  0  0  0  0  0  0  0  0  0  0
  1  2  1  0  0  0  0
  2  3  1  0  0  0  0
  3  4  1  0  0  0  0
  4  5  1  0  0  0  0
  5  6  1  0  0  0  0
  1  7  1  0  0  0  0
  6  8  1  0  0  0  0
  2  9  1  6  0  0  0
  3 10  1  6  0  0  0
  4 11  1  6  0  0  0
  5 12  1  1  0  0  0
M  END
$$$$
