
  ACD/LABS06052616262D

 10 10  0  0  1  0  0  0  0  0  1 V2000
   21.3262   -8.2404    0.0000 C   0  0  0  0  0  0  0  0  0  0  0  0
   21.3262   -9.5704    0.0000 C   0  0  0  0  0  0  0  0  0  0  0  0
   20.1743   -7.5754    0.0000 C   0  0  0  0  0  0  0  0  0  0  0  0
   20.1743  -10.2354    0.0000 C   0  0  0  0  0  0  0  0  0  0  0  0
   19.0225   -8.2404    0.0000 C   0  0  0  0  0  0  0  0  0  0  0  0
   19.0225   -9.5704    0.0000 C   0  0  0  0  0  0  0  0  0  0  0  0
   20.1743  -11.5654    0.0000 C   0  0  0  0  0  0  0  0  0  0  0  0
   20.1743   -6.2454    0.0000 C   0  0  0  0  0  0  0  0  0  0  0  0
   19.0225   -5.5804    0.0000 C   0  0  0  0  0  0  0  0  0  0  0  0
   21.3262   -5.5804    0.0000 C   0  0  0  0  0  0  0  0  0  0  0  0
  1  2  1  0  0  0  0
  1  3  1  0  0  0  0
  2  4  2  0  0  0  0
  3  5  1  0  0  0  0
  4  6  1  0  0  0  0
  5  6  1  0  0  0  0
  4  7  1  0  0  0  0
  3  8  1  1  0  0  0
  8  9  2  0  0  0  0
  8 10  1  0  0  0  0
M  END
$$$$
