
  ACD/LABS05262610512D

 10  9  0  0  0  0  0  0  0  0  1 V2000
   11.3451   -6.4096    0.0000 C   0  0  0  0  0  0  0  0  0  0  0  0
   12.4988   -5.7527    0.0000 C   0  0  0  0  0  0  0  0  0  0  0  0
   13.6525   -6.4257    0.0000 C   0  0  0  0  0  0  0  0  0  0  0  0
   14.8063   -5.7527    0.0000 C   0  0  0  0  0  0  0  0  0  0  0  0
   15.9600   -6.4257    0.0000 C   0  0  0  0  0  0  0  0  0  0  0  0
   17.1137   -5.7527    0.0000 C   0  0  0  0  0  0  0  0  0  0  0  0
   18.2675   -6.4096    0.0000 C   0  0  0  0  0  0  0  0  0  0  0  0
   19.4212   -5.7527    0.0000 C   0  0  0  0  0  0  0  0  0  0  0  0
   20.5749   -6.4257    0.0000 C   0  0  0  0  0  0  0  0  0  0  0  0
   21.7287   -5.7527    0.0000 C   0  0  0  0  0  0  0  0  0  0  0  0
  1  2  1  0  0  0  0
  2  3  1  0  0  0  0
  3  4  1  0  0  0  0
  4  5  1  0  0  0  0
  5  6  1  0  0  0  0
  6  7  1  0  0  0  0
  7  8  1  0  0  0  0
  8  9  1  0  0  0  0
  9 10  1  0  0  0  0
M  END
$$$$
