
  ACD/LABS05232613352D

  5  5  0  0  0  0  0  0  0  0  1 V2000
   21.7012   -7.5153    0.0000 B   0  0  0  0  0  0  0  0  0  0  0  0
   22.7750   -6.0374    0.0000 N   0  0  0  0  0  0  0  0  0  0  0  0
   24.5123   -6.6019    0.0000 C   0  0  0  0  0  0  0  0  0  0  0  0
   22.7750   -8.9932    0.0000 N   0  0  0  0  0  0  0  0  0  0  0  0
   24.5123   -8.4287    0.0000 C   0  0  0  0  0  0  0  0  0  0  0  0
  1  2  1  0  0  0  0
  2  3  2  0  0  0  0
  1  4  1  0  0  0  0
  4  5  2  0  0  0  0
  3  5  1  0  0  0  0
M  END
$$$$
