
  ACD/LABS05262610552D

  3  2  0  0  0  0  0  0  0  0  1 V2000
   17.2940   -5.3690    0.0000 C   0  0  0  0  0  0  0  0  0  0  0  0
   17.9590   -6.5208    0.0000 Br  0  0  0  0  0  0  0  0  0  0  0  0
   15.9640   -5.3690    0.0000 Br  0  0  0  0  0  0  0  0  0  0  0  0
  1  2  1  0  0  0  0
  1  3  1  0  0  0  0
M  END
$$$$
