
  ACD/LABS05262610562D

  9  8  0  0  0  0  0  0  0  0  1 V2000
   17.1378   -5.4341    0.0000 C   0  0  0  0  0  0  0  0  0  0  0  0
   17.8028   -6.5859    0.0000 N   0  0  0  0  0  0  0  0  0  0  0  0
   15.8078   -5.4341    0.0000 C   0  0  0  0  0  0  0  0  0  0  0  0
   15.1428   -4.2823    0.0000 C   0  0  0  0  0  0  0  0  0  0  0  0
   13.8128   -4.2823    0.0000 C   0  0  0  0  0  0  0  0  0  0  0  0
   19.1328   -6.5859    0.0000 C   0  0  0  0  0  0  0  0  0  0  0  0
   19.7978   -7.7377    0.0000 C   0  0  0  0  0  0  0  0  0  0  0  0
   21.1278   -7.7377    0.0000 C   0  0  0  0  0  0  0  0  0  0  0  0
   21.7928   -8.8895    0.0000 C   0  0  0  0  0  0  0  0  0  0  0  0
  1  2  1  0  0  0  0
  1  3  1  0  0  0  0
  3  4  1  0  0  0  0
  4  5  1  0  0  0  0
  2  6  1  0  0  0  0
  6  7  1  0  0  0  0
  7  8  1  0  0  0  0
  8  9  1  0  0  0  0
M  END
$$$$
