
  ACD/LABS05262610582D

  6  5  0  0  0  0  0  0  0  0  1 V2000
   16.0991   -6.0291    0.0000 Cl  0  0  0  0  0  0  0  0  0  0  0  0
   17.2509   -6.6941    0.0000 C   0  0  0  0  0  0  0  0  0  0  0  0
   18.4027   -6.0291    0.0000 C   0  0  0  0  0  0  0  0  0  0  0  0
   17.2509   -8.0241    0.0000 O   0  0  0  0  0  0  0  0  0  0  0  0
   18.4027   -4.6991    0.0000 Cl  0  0  0  0  0  0  0  0  0  0  0  0
   19.5545   -6.6941    0.0000 Cl  0  0  0  0  0  0  0  0  0  0  0  0
  1  2  1  0  0  0  0
  2  3  1  0  0  0  0
  2  4  2  0  0  0  0
  3  5  1  0  0  0  0
  3  6  1  0  0  0  0
M  END
$$$$
