
  ACD/LABS05262611152D

  3  2  0  0  0  0  0  0  0  0  1 V2000
   18.7732   -8.2670    0.0000 C   0  0  0  0  0  0  0  0  0  0  0  0
   18.1082   -9.4188    0.0000 Cl  0  0  0  0  0  0  0  0  0  0  0  0
   20.1032   -8.2670    0.0000 Cl  0  0  0  0  0  0  0  0  0  0  0  0
  1  2  1  0  0  0  0
  1  3  1  0  0  0  0
M  END
$$$$
