
  ACD/LABS05262611042D

  5  4  0  0  0  0  0  0  0  0  1 V2000
   17.5784   -8.0281    0.0000 C   0  0  0  0  0  0  0  0  0  0  0  0
   17.5784   -6.6981    0.0000 Cl  0  0  0  0  0  0  0  0  0  0  0  0
   17.5784   -9.3581    0.0000 Cl  0  0  0  0  0  0  0  0  0  0  0  0
   18.9084   -8.0281    0.0000 F   0  0  0  0  0  0  0  0  0  0  0  0
   16.2484   -8.0281    0.0000 F   0  0  0  0  0  0  0  0  0  0  0  0
  1  2  1  0  0  0  0
  1  3  1  0  0  0  0
  1  4  1  0  0  0  0
  1  5  1  0  0  0  0
M  END
$$$$
