
  ACD/LABS05262611272D

 10  9  0  0  0  0  0  0  0  0  1 V2000
   18.3954   -7.2567    0.0000 C   0  0  0  0  0  0  0  0  0  0  0  0
   17.7229   -8.4044    0.0000 O   0  0  0  0  0  0  0  0  0  0  0  0
   16.3929   -8.4128    0.0000 C   0  0  0  0  0  0  0  0  0  0  0  0
   15.7206   -9.5604    0.0000 C   0  0  0  0  0  0  0  0  0  0  0  0
   17.7283   -6.1012    0.0000 O   0  0  0  0  0  0  0  0  0  0  0  0
   19.7099   -7.2571    0.0000 C   0  0  0  0  0  0  0  0  0  0  0  0
   20.3824   -6.1095    0.0000 O   0  0  0  0  0  0  0  0  0  0  0  0
   21.7124   -6.1010    0.0000 C   0  0  0  0  0  0  0  0  0  0  0  0
   22.3848   -4.9534    0.0000 C   0  0  0  0  0  0  0  0  0  0  0  0
   20.3770   -8.4126    0.0000 O   0  0  0  0  0  0  0  0  0  0  0  0
  1  2  1  0  0  0  0
  2  3  1  0  0  0  0
  3  4  1  0  0  0  0
  1  5  2  0  0  0  0
  6  7  1  0  0  0  0
  7  8  1  0  0  0  0
  8  9  1  0  0  0  0
  6 10  2  0  0  0  0
  1  6  1  0  0  0  0
M  END
$$$$
