
  ACD/LABS05262611302D

 16 16  0  0  0  0  0  0  0  0  1 V2000
   19.7177   -5.7296    0.0000 C   0  0  0  0  0  0  0  0  0  0  0  0
   18.3877   -5.7296    0.0000 C   0  0  0  0  0  0  0  0  0  0  0  0
   20.3827   -4.5778    0.0000 C   0  0  0  0  0  0  0  0  0  0  0  0
   17.7227   -4.5778    0.0000 C   0  0  0  0  0  0  0  0  0  0  0  0
   19.7177   -3.4259    0.0000 C   0  0  0  0  0  0  0  0  0  0  0  0
   18.3877   -3.4259    0.0000 C   0  0  0  0  0  0  0  0  0  0  0  0
   20.3827   -6.8814    0.0000 C   0  0  0  0  0  0  0  0  0  0  0  0
   21.7127   -6.8814    0.0000 O   0  0  0  0  0  0  0  0  0  0  0  0
   22.3777   -8.0332    0.0000 C   0  0  0  0  0  0  0  0  0  0  0  0
   23.7077   -8.0332    0.0000 C   0  0  0  0  0  0  0  0  0  0  0  0
   19.7177   -8.0332    0.0000 O   0  0  0  0  0  0  0  0  0  0  0  0
   17.7227   -6.8814    0.0000 C   0  0  0  0  0  0  0  0  0  0  0  0
   16.3927   -6.8814    0.0000 O   0  0  0  0  0  0  0  0  0  0  0  0
   15.7277   -8.0332    0.0000 C   0  0  0  0  0  0  0  0  0  0  0  0
   14.3977   -8.0332    0.0000 C   0  0  0  0  0  0  0  0  0  0  0  0
   18.3877   -8.0332    0.0000 O   0  0  0  0  0  0  0  0  0  0  0  0
  1  2  1  0  0  0  0
  1  3  2  0  0  0  0
  2  4  2  0  0  0  0
  3  5  1  0  0  0  0
  4  6  1  0  0  0  0
  5  6  2  0  0  0  0
  7  8  1  0  0  0  0
  8  9  1  0  0  0  0
  9 10  1  0  0  0  0
  7 11  2  0  0  0  0
  1  7  1  0  0  0  0
 12 13  1  0  0  0  0
 13 14  1  0  0  0  0
 14 15  1  0  0  0  0
 12 16  2  0  0  0  0
  2 12  1  0  0  0  0
M  END
$$$$
