
  ACD/LABS05262611322D

 12 11  0  0  0  0  0  0  0  0  1 V2000
   17.3943   -7.6765    0.0000 C   0  0  0  0  0  0  0  0  0  0  0  0
   16.7222   -8.8238    0.0000 O   0  0  0  0  0  0  0  0  0  0  0  0
   15.3922   -8.8324    0.0000 C   0  0  0  0  0  0  0  0  0  0  0  0
   14.7201   -9.9797    0.0000 C   0  0  0  0  0  0  0  0  0  0  0  0
   16.7274   -6.5212    0.0000 O   0  0  0  0  0  0  0  0  0  0  0  0
   18.7243   -7.6679    0.0000 C   0  0  0  0  0  0  0  0  0  0  0  0
   19.3810   -6.5295    0.0000 C   0  0  0  0  0  0  0  0  0  0  0  0
   20.7110   -6.5209    0.0000 C   0  0  0  0  0  0  0  0  0  0  0  0
   21.3831   -5.3736    0.0000 O   0  0  0  0  0  0  0  0  0  0  0  0
   22.7131   -5.3650    0.0000 C   0  0  0  0  0  0  0  0  0  0  0  0
   23.3852   -4.2176    0.0000 C   0  0  0  0  0  0  0  0  0  0  0  0
   21.3779   -7.6761    0.0000 O   0  0  0  0  0  0  0  0  0  0  0  0
  1  2  1  0  0  0  0
  2  3  1  0  0  0  0
  3  4  1  0  0  0  0
  1  5  2  0  0  0  0
  1  6  1  0  0  0  0
  6  7  1  0  0  0  0
  8  9  1  0  0  0  0
  9 10  1  0  0  0  0
 10 11  1  0  0  0  0
  8 12  2  0  0  0  0
  7  8  1  0  0  0  0
M  END
$$$$
