
  ACD/LABS05262611222D

  8  7  0  0  0  0  0  0  0  0  1 V2000
   18.9886   -6.2614    0.0000 C   0  0  0  0  0  0  0  0  0  0  0  0
   18.9886   -4.9314    0.0000 O   0  0  0  0  0  0  0  0  0  0  0  0
   20.1404   -6.9264    0.0000 O   0  0  0  0  0  0  0  0  0  0  0  0
   17.8367   -6.9264    0.0000 O   0  0  0  0  0  0  0  0  0  0  0  0
   21.2922   -6.2614    0.0000 C   0  0  0  0  0  0  0  0  0  0  0  0
   22.4440   -6.9264    0.0000 C   0  0  0  0  0  0  0  0  0  0  0  0
   16.6849   -6.2614    0.0000 C   0  0  0  0  0  0  0  0  0  0  0  0
   15.5331   -6.9264    0.0000 C   0  0  0  0  0  0  0  0  0  0  0  0
  1  2  2  0  0  0  0
  1  3  1  0  0  0  0
  1  4  1  0  0  0  0
  3  5  1  0  0  0  0
  5  6  1  0  0  0  0
  4  7  1  0  0  0  0
  7  8  1  0  0  0  0
M  END
$$$$
