
  ACD/LABS05262611262D

 11 10  0  0  0  0  0  0  0  0  1 V2000
   19.0527   -6.2614    0.0000 C   0  0  0  0  0  0  0  0  0  0  0  0
   20.2045   -6.9264    0.0000 C   0  0  0  0  0  0  0  0  0  0  0  0
   17.9008   -6.9264    0.0000 C   0  0  0  0  0  0  0  0  0  0  0  0
   21.3563   -6.2614    0.0000 O   0  0  0  0  0  0  0  0  0  0  0  0
   22.5081   -6.9264    0.0000 C   0  0  0  0  0  0  0  0  0  0  0  0
   16.7490   -6.2614    0.0000 O   0  0  0  0  0  0  0  0  0  0  0  0
   15.5972   -6.9264    0.0000 C   0  0  0  0  0  0  0  0  0  0  0  0
   23.6599   -6.2614    0.0000 C   0  0  0  0  0  0  0  0  0  0  0  0
   14.4454   -6.2614    0.0000 C   0  0  0  0  0  0  0  0  0  0  0  0
   17.8989   -8.2524    0.0000 O   0  0  0  0  0  0  0  0  0  0  0  0
   20.2064   -8.2524    0.0000 O   0  0  0  0  0  0  0  0  0  0  0  0
  1  2  1  0  0  0  0
  1  3  1  0  0  0  0
  2  4  1  0  0  0  0
  4  5  1  0  0  0  0
  3  6  1  0  0  0  0
  6  7  1  0  0  0  0
  5  8  1  0  0  0  0
  7  9  1  0  0  0  0
  3 10  2  0  0  0  0
  2 11  2  0  0  0  0
M  END
$$$$
