
  ACD/LABS05262611332D

  3  2  0  0  0  0  0  0  0  0  1 V2000
   18.0431   -7.3270    0.0000 C   0  0  0  0  0  0  0  0  0  0  0  0
   19.1950   -6.6620    0.0000 I   0  0  0  0  0  0  0  0  0  0  0  0
   16.8913   -6.6620    0.0000 I   0  0  0  0  0  0  0  0  0  0  0  0
  1  2  1  0  0  0  0
  1  3  1  0  0  0  0
M  END
$$$$
