
  ACD/LABS05292609372D

  3  2  0  0  0  0  0  0  0  0  1 V2000
   20.9576   -7.2189    0.0000 S   0  0  0  0  0  0  0  0  0  0  0  0
   19.8057   -6.5539    0.0000 C   0  0  0  0  0  0  0  0  0  0  0  0
   22.1133   -6.5699    0.0000 C   0  0  0  0  0  0  0  0  0  0  0  0
  1  2  1  0  0  0  0
  1  3  1  0  0  0  0
M  END
$$$$
