
  ACD/LABS05262611532D

  8  7  0  0  0  0  0  0  0  0  1 V2000
   18.3954   -7.2567    0.0000 C   0  0  0  0  0  0  0  0  0  0  0  0
   17.7229   -8.4044    0.0000 O   0  0  0  0  0  0  0  0  0  0  0  0
   16.3929   -8.4128    0.0000 C   0  0  0  0  0  0  0  0  0  0  0  0
   17.7283   -6.1012    0.0000 O   0  0  0  0  0  0  0  0  0  0  0  0
   19.7099   -7.2571    0.0000 C   0  0  0  0  0  0  0  0  0  0  0  0
   20.3824   -6.1095    0.0000 O   0  0  0  0  0  0  0  0  0  0  0  0
   21.7124   -6.1010    0.0000 C   0  0  0  0  0  0  0  0  0  0  0  0
   20.3770   -8.4126    0.0000 O   0  0  0  0  0  0  0  0  0  0  0  0
  1  2  1  0  0  0  0
  2  3  1  0  0  0  0
  1  4  2  0  0  0  0
  5  6  1  0  0  0  0
  6  7  1  0  0  0  0
  5  8  2  0  0  0  0
  1  5  1  0  0  0  0
M  END
$$$$
