
  ACD/LABS05292609392D

 14 14  0  0  0  0  0  0  0  0  1 V2000
   23.4093   -8.1002    0.0000 C   0  0  0  0  0  0  0  0  0  0  0  0
   23.4093   -9.4302    0.0000 C   0  0  0  0  0  0  0  0  0  0  0  0
   22.2574   -7.4352    0.0000 C   0  0  0  0  0  0  0  0  0  0  0  0
   22.2574  -10.0952    0.0000 C   0  0  0  0  0  0  0  0  0  0  0  0
   21.1056   -8.1002    0.0000 C   0  0  0  0  0  0  0  0  0  0  0  0
   21.1056   -9.4302    0.0000 C   0  0  0  0  0  0  0  0  0  0  0  0
   22.2575   -6.1052    0.0000 C   0  0  0  0  0  0  0  0  0  0  0  0
   21.1037   -5.4482    0.0000 O   0  0  0  0  0  0  0  0  0  0  0  0
   23.4112   -5.4322    0.0000 O   0  0  0  0  0  0  0  0  0  0  0  0
   22.2575  -11.4252    0.0000 C   0  0  0  0  0  0  0  0  0  0  0  0
   21.1037  -12.0822    0.0000 O   0  0  0  0  0  0  0  0  0  0  0  0
   23.4112  -12.0982    0.0000 O   0  0  0  0  0  0  0  0  0  0  0  0
   23.4112  -13.4282    0.0000 C   0  0  0  0  0  0  0  0  0  0  0  0
   23.4112   -4.1022    0.0000 C   0  0  0  0  0  0  0  0  0  0  0  0
  1  2  1  0  0  0  0
  1  3  2  0  0  0  0
  2  4  2  0  0  0  0
  3  5  1  0  0  0  0
  4  6  1  0  0  0  0
  5  6  2  0  0  0  0
  3  7  1  0  0  0  0
  7  8  2  0  0  0  0
  7  9  1  0  0  0  0
  4 10  1  0  0  0  0
 10 11  2  0  0  0  0
 10 12  1  0  0  0  0
 12 13  1  0  0  0  0
  9 14  1  0  0  0  0
M  END
$$$$
