
  ACD/LABS05262611462D

  3  2  0  0  0  0  0  0  0  0  1 V2000
   18.2143   -6.8343    0.0000 C   0  0  0  0  0  0  0  0  0  0  0  0
   19.3661   -6.1693    0.0000 O   0  0  0  0  0  0  0  0  0  0  0  0
   19.3661   -4.8393    0.0000 C   0  0  0  0  0  0  0  0  0  0  0  0
  1  2  1  0  0  0  0
  2  3  1  0  0  0  0
M  END
$$$$
