
  ACD/LABS05262611352D

  5  4  0  0  0  0  0  0  0  0  1 V2000
   18.0431   -7.3270    0.0000 C   0  0  0  0  0  0  0  0  0  0  0  0
   19.1950   -6.6620    0.0000 O   0  0  0  0  0  0  0  0  0  0  0  0
   16.8913   -6.6620    0.0000 O   0  0  0  0  0  0  0  0  0  0  0  0
   20.3506   -7.3230    0.0000 C   0  0  0  0  0  0  0  0  0  0  0  0
   15.7357   -7.3390    0.0000 C   0  0  0  0  0  0  0  0  0  0  0  0
  1  2  1  0  0  0  0
  1  3  1  0  0  0  0
  2  4  1  0  0  0  0
  3  5  1  0  0  0  0
M  END
$$$$
