
  ACD/LABS05292609432D

 13 14  0  0  0  0  0  0  0  0  1 V2000
   20.4929   -5.4081    0.0000 C   0  0  0  0  0  0  0  0  0  0  0  0
   20.4929   -6.7381    0.0000 C   0  0  0  0  0  0  0  0  0  0  0  0
   19.3410   -4.7431    0.0000 C   0  0  0  0  0  0  0  0  0  0  0  0
   19.3410   -7.4031    0.0000 C   0  0  0  0  0  0  0  0  0  0  0  0
   18.1892   -5.4081    0.0000 C   0  0  0  0  0  0  0  0  0  0  0  0
   18.1892   -6.7381    0.0000 C   0  0  0  0  0  0  0  0  0  0  0  0
   19.3411   -8.7331    0.0000 N   0  0  0  0  0  0  0  0  0  0  0  0
   18.1893   -9.3982    0.0000 C   0  0  0  0  0  0  0  0  0  0  0  0
   18.1894  -10.7282    0.0000 C   0  0  0  0  0  0  0  0  0  0  0  0
   17.0374   -8.7332    0.0000 C   0  0  0  0  0  0  0  0  0  0  0  0
   17.0375  -11.3932    0.0000 C   0  0  0  0  0  0  0  0  0  0  0  0
   15.8856   -9.3983    0.0000 C   0  0  0  0  0  0  0  0  0  0  0  0
   15.8857  -10.7283    0.0000 C   0  0  0  0  0  0  0  0  0  0  0  0
  1  2  1  0  0  0  0
  1  3  2  0  0  0  0
  2  4  2  0  0  0  0
  3  5  1  0  0  0  0
  4  6  1  0  0  0  0
  5  6  2  0  0  0  0
  4  7  1  0  0  0  0
  8  9  1  0  0  0  0
  8 10  2  0  0  0  0
  9 11  2  0  0  0  0
 10 12  1  0  0  0  0
 11 13  1  0  0  0  0
 12 13  2  0  0  0  0
  7  8  1  0  0  0  0
M  END
$$$$
