
  ACD/LABS05292609472D

 13 14  0  0  0  0  0  0  0  0  1 V2000
   18.1890   -9.3965    0.0000 C   0  0  0  0  0  0  0  0  0  0  0  0
   18.1894  -10.7272    0.0000 C   0  0  0  0  0  0  0  0  0  0  0  0
   17.0458   -8.7464    0.0000 C   0  0  0  0  0  0  0  0  0  0  0  0
   17.0376  -11.3922    0.0000 C   0  0  0  0  0  0  0  0  0  0  0  0
   15.8940   -9.4114    0.0000 C   0  0  0  0  0  0  0  0  0  0  0  0
   15.8851  -10.7266    0.0000 C   0  0  0  0  0  0  0  0  0  0  0  0
   19.3408   -8.7315    0.0000 C   0  0  0  0  0  0  0  0  0  0  0  0
   20.4926   -9.3965    0.0000 C   0  0  0  0  0  0  0  0  0  0  0  0
   21.6444   -8.7315    0.0000 C   0  0  0  0  0  0  0  0  0  0  0  0
   20.4926  -10.7265    0.0000 C   0  0  0  0  0  0  0  0  0  0  0  0
   22.7963   -9.3966    0.0000 C   0  0  0  0  0  0  0  0  0  0  0  0
   21.6444  -11.3915    0.0000 C   0  0  0  0  0  0  0  0  0  0  0  0
   22.7962  -10.7265    0.0000 C   0  0  0  0  0  0  0  0  0  0  0  0
  1  2  1  0  0  0  0
  1  3  2  0  0  0  0
  2  4  2  0  0  0  0
  3  5  1  0  0  0  0
  4  6  1  0  0  0  0
  5  6  2  0  0  0  0
  1  7  1  0  0  0  0
  8  9  1  0  0  0  0
  8 10  2  0  0  0  0
  9 11  2  0  0  0  0
 10 12  1  0  0  0  0
 11 13  1  0  0  0  0
 12 13  2  0  0  0  0
  7  8  1  0  0  0  0
M  END
$$$$
