
  ACD/LABS05292609422D

 14 15  0  0  0  0  0  0  0  0  1 V2000
   20.4929   -5.4081    0.0000 C   0  0  0  0  0  0  0  0  0  0  0  0
   20.4929   -6.7381    0.0000 C   0  0  0  0  0  0  0  0  0  0  0  0
   19.3410   -4.7431    0.0000 C   0  0  0  0  0  0  0  0  0  0  0  0
   19.3410   -7.4031    0.0000 C   0  0  0  0  0  0  0  0  0  0  0  0
   18.1892   -5.4081    0.0000 C   0  0  0  0  0  0  0  0  0  0  0  0
   18.1892   -6.7381    0.0000 C   0  0  0  0  0  0  0  0  0  0  0  0
   19.3411   -8.7331    0.0000 C   0  0  0  0  0  0  0  0  0  0  0  0
   19.3411  -10.0631    0.0000 C   0  0  0  0  0  0  0  0  0  0  0  0
   19.3411  -11.3931    0.0000 C   0  0  0  0  0  0  0  0  0  0  0  0
   20.4929  -12.0582    0.0000 C   0  0  0  0  0  0  0  0  0  0  0  0
   18.1892  -12.0582    0.0000 C   0  0  0  0  0  0  0  0  0  0  0  0
   20.4928  -13.3882    0.0000 C   0  0  0  0  0  0  0  0  0  0  0  0
   18.1892  -13.3882    0.0000 C   0  0  0  0  0  0  0  0  0  0  0  0
   19.3410  -14.0532    0.0000 C   0  0  0  0  0  0  0  0  0  0  0  0
  1  2  1  0  0  0  0
  1  3  2  0  0  0  0
  2  4  2  0  0  0  0
  3  5  1  0  0  0  0
  4  6  1  0  0  0  0
  5  6  2  0  0  0  0
  4  7  1  0  0  0  0
  7  8  3  0  0  0  0
  9 10  1  0  0  0  0
  9 11  2  0  0  0  0
 10 12  2  0  0  0  0
 11 13  1  0  0  0  0
 12 14  1  0  0  0  0
 13 14  2  0  0  0  0
  8  9  1  0  0  0  0
M  END
$$$$
