
  ACD/LABS05292609492D

  7  6  0  0  0  0  0  0  0  0  1 V2000
   15.1308   -7.1218    0.0000 O   0  0  0  0  0  0  0  0  0  0  0  0
   16.4608   -7.1218    0.0000 C   0  0  0  0  0  0  0  0  0  0  0  0
   17.1258   -8.2736    0.0000 C   0  0  0  0  0  0  0  0  0  0  0  0
   18.4558   -8.2736    0.0000 C   0  0  0  0  0  0  0  0  0  0  0  0
   14.4658   -5.9699    0.0000 C   0  0  0  0  0  0  0  0  0  0  0  0
   13.1358   -5.9699    0.0000 C   0  0  0  0  0  0  0  0  0  0  0  0
   12.4708   -4.8181    0.0000 C   0  0  0  0  0  0  0  0  0  0  0  0
  1  2  1  0  0  0  0
  2  3  1  0  0  0  0
  3  4  1  0  0  0  0
  1  5  1  0  0  0  0
  5  6  1  0  0  0  0
  6  7  1  0  0  0  0
M  END
$$$$
