
  ACD/LABS05292609522D

 14 13  0  0  0  0  0  0  0  0  1 V2000
   16.9871   -7.9439    0.0000 C   0  0  0  0  0  0  0  0  0  0  0  0
   18.1390   -7.2789    0.0000 C   0  0  0  0  0  0  0  0  0  0  0  0
   19.2908   -7.9439    0.0000 C   0  0  0  0  0  0  0  0  0  0  0  0
   20.4426   -7.2789    0.0000 C   0  0  0  0  0  0  0  0  0  0  0  0
   21.5944   -7.9439    0.0000 C   0  0  0  0  0  0  0  0  0  0  0  0
   22.7462   -7.2789    0.0000 C   0  0  0  0  0  0  0  0  0  0  0  0
   23.8980   -7.9439    0.0000 C   0  0  0  0  0  0  0  0  0  0  0  0
   25.0498   -7.2789    0.0000 C   0  0  0  0  0  0  0  0  0  0  0  0
   26.2017   -7.9439    0.0000 C   0  0  0  0  0  0  0  0  0  0  0  0
   27.3535   -7.2789    0.0000 C   0  0  0  0  0  0  0  0  0  0  0  0
   28.5053   -7.9439    0.0000 C   0  0  0  0  0  0  0  0  0  0  0  0
   29.6571   -7.2789    0.0000 C   0  0  0  0  0  0  0  0  0  0  0  0
   15.8353   -7.2789    0.0000 O   0  0  0  0  0  0  0  0  0  0  0  0
   16.9871   -9.2739    0.0000 O   0  0  0  0  0  0  0  0  0  0  0  0
  1  2  1  0  0  0  0
  2  3  1  0  0  0  0
  3  4  1  0  0  0  0
  4  5  1  0  0  0  0
  5  6  1  0  0  0  0
  6  7  1  0  0  0  0
  7  8  1  0  0  0  0
  8  9  1  0  0  0  0
  9 10  1  0  0  0  0
 10 11  1  0  0  0  0
 11 12  1  0  0  0  0
  1 13  2  0  0  0  0
  1 14  1  0  0  0  0
M  END
$$$$
