
  ACD/LABS05232614582D

  8  7  0  0  0  0  0  0  0  0  1 V2000
   21.9011   -8.7411    0.0000 C   0  0  0  0  0  0  0  0  0  0  0  0
   21.9011   -7.3631    0.0000 C   0  0  0  0  0  0  0  0  0  0  0  0
   23.0946   -9.4302    0.0000 C   0  0  0  0  0  0  0  0  0  0  0  0
   24.2880   -8.7411    0.0000 C   0  0  0  0  0  0  0  0  0  0  0  0
   20.7077   -9.4302    0.0000 C   0  0  0  0  0  0  0  0  0  0  0  0
   19.5142   -8.7411    0.0000 C   0  0  0  0  0  0  0  0  0  0  0  0
   24.2880   -7.3631    0.0000 O   0  0  0  0  0  0  0  0  0  0  0  0
   25.4815   -9.4302    0.0000 O   0  0  0  0  0  0  0  0  0  0  0  0
  1  2  1  0  0  0  0
  1  3  1  0  0  0  0
  3  4  1  0  0  0  0
  1  5  1  0  0  0  0
  5  6  1  0  0  0  0
  4  7  2  0  0  0  0
  4  8  1  0  0  0  0
M  END
$$$$

  ACD/LABS05232614582D

  4  3  0  0  0  0  0  0  0  0  1 V2000
   22.6421  -11.6175    0.0000 B   0  0  0  0  0  0  0  0  0  0  0  0
   23.8118  -12.1142    0.0000 F   0  0  0  0  0  0  0  0  0  0  0  0
   22.6581  -10.4317    0.0000 F   0  0  0  0  0  0  0  0  0  0  0  0
   21.5204  -12.2424    0.0000 F   0  0  0  0  0  0  0  0  0  0  0  0
  1  2  1  0  0  0  0
  1  3  1  0  0  0  0
  1  4  1  0  0  0  0
M  END
$$$$
