
  ACD/LABS05232614412D

  8  7  0  0  0  0  0  0  0  0  1 V2000
   19.3411   -8.8957    0.0000 B   0  0  0  0  0  0  0  0  0  0  0  0
   19.8619   -7.9937    0.0000 Cl  0  0  0  0  0  0  0  0  0  0  0  0
   19.8619   -9.7977    0.0000 Cl  0  0  0  0  0  0  0  0  0  0  0  0
   18.2995   -8.8957    0.0000 N   0  0  0  0  0  0  0  0  0  0  0  0
   17.7787   -7.9937    0.0000 C   0  0  0  0  0  0  0  0  0  0  0  0
   18.2995   -7.0917    0.0000 C   0  0  0  0  0  0  0  0  0  0  0  0
   17.7787   -9.7977    0.0000 C   0  0  0  0  0  0  0  0  0  0  0  0
   16.7372   -9.7977    0.0000 C   0  0  0  0  0  0  0  0  0  0  0  0
  1  2  1  0  0  0  0
  1  3  1  0  0  0  0
  1  4  1  0  0  0  0
  4  5  1  0  0  0  0
  5  6  1  0  0  0  0
  4  7  1  0  0  0  0
  7  8  1  0  0  0  0
M  END
$$$$
