
  ACD/LABS05232614082D

  5  4  0  0  0  0  0  0  0  0  1 V2000
   18.7883   -6.9093    0.0000 C   0  0  0  0  0  0  0  0  0  0  0  0
   20.0061   -6.9093    0.0000 C   0  0  0  0  0  0  0  0  0  0  0  0
   20.6150   -7.9640    0.0000 B   0  0  0  0  0  0  0  0  0  0  0  0
   21.8328   -7.9640    0.0000 Br  0  0  0  0  0  0  0  0  0  0  0  0
   20.0061   -9.0187    0.0000 Br  0  0  0  0  0  0  0  0  0  0  0  0
  1  2  1  0  0  0  0
  2  3  1  0  0  0  0
  3  4  1  0  0  0  0
  3  5  1  0  0  0  0
M  END
$$$$
