
  ACD/LABS05232614392D

  7  7  0  0  0  0  0  0  0  0  1 V2000
   19.6680   -7.2629    0.0000 B   0  0  0  0  0  0  0  0  0  0  0  0
   19.8003   -6.0039    0.0000 O   0  0  0  0  0  0  0  0  0  0  0  0
   20.8244   -7.7778    0.0000 O   0  0  0  0  0  0  0  0  0  0  0  0
   18.5717   -7.8958    0.0000 C   0  0  0  0  0  0  0  0  0  0  0  0
   17.4754   -7.2629    0.0000 C   0  0  0  0  0  0  0  0  0  0  0  0
   21.0385   -5.7407    0.0000 C   0  0  0  0  0  0  0  0  0  0  0  0
   21.6715   -6.8370    0.0000 C   0  0  0  0  0  0  0  0  0  0  0  0
  1  2  1  0  0  0  0
  1  3  1  0  0  0  0
  1  4  1  0  0  0  0
  4  5  1  0  0  0  0
  2  6  1  0  0  0  0
  6  7  1  0  0  0  0
  7  3  1  0  0  0  0
M  END
$$$$
