
  ACD/LABS05292610002D

  3  2  0  0  0  0  0  0  0  0  1 V2000
   20.0526   -8.1643    0.0000 C   0  0  0  0  0  0  0  0  0  0  0  0
   20.0526   -9.4943    0.0000 C   0  0  0  0  0  0  0  0  0  0  0  0
   18.9008   -7.4993    0.0000 S   0  0  0  0  0  0  0  0  0  0  0  0
  1  2  1  0  0  0  0
  1  3  1  0  0  0  0
M  END
$$$$
