
  ACD/LABS05292610022D

  9  9  0  0  0  0  0  0  0  0  1 V2000
   20.0526   -8.1643    0.0000 C   0  0  0  0  0  0  0  0  0  0  0  0
   20.0526   -9.4943    0.0000 C   0  0  0  0  0  0  0  0  0  0  0  0
   18.9008   -7.4993    0.0000 O   0  0  0  0  0  0  0  0  0  0  0  0
   18.9008   -6.1693    0.0000 C   0  0  0  0  0  0  0  0  0  0  0  0
   17.7490   -5.5043    0.0000 C   0  0  0  0  0  0  0  0  0  0  0  0
   20.0527   -5.5042    0.0000 C   0  0  0  0  0  0  0  0  0  0  0  0
   17.7491   -4.1742    0.0000 C   0  0  0  0  0  0  0  0  0  0  0  0
   20.0527   -4.1742    0.0000 C   0  0  0  0  0  0  0  0  0  0  0  0
   18.9009   -3.5092    0.0000 C   0  0  0  0  0  0  0  0  0  0  0  0
  1  2  1  0  0  0  0
  1  3  1  0  0  0  0
  4  5  1  0  0  0  0
  4  6  2  0  0  0  0
  5  7  2  0  0  0  0
  6  8  1  0  0  0  0
  7  9  1  0  0  0  0
  8  9  2  0  0  0  0
  3  4  1  0  0  0  0
M  END
$$$$
