
  ACD/LABS05292610172D

 11 11  0  0  0  0  0  0  0  0  1 V2000
   24.5560   -7.5173    0.0000 C   0  0  0  0  0  0  0  0  0  0  0  0
   24.5560   -8.8473    0.0000 C   0  0  0  0  0  0  0  0  0  0  0  0
   23.4042   -6.8523    0.0000 C   0  0  0  0  0  0  0  0  0  0  0  0
   23.4042   -9.5123    0.0000 C   0  0  0  0  0  0  0  0  0  0  0  0
   22.2523   -7.5173    0.0000 C   0  0  0  0  0  0  0  0  0  0  0  0
   22.2523   -8.8473    0.0000 C   0  0  0  0  0  0  0  0  0  0  0  0
   23.4042   -5.5223    0.0000 C   0  0  0  0  0  0  0  0  0  0  0  0
   24.5560   -4.8573    0.0000 O   0  0  0  0  0  0  0  0  0  0  0  0
   22.2523   -4.8573    0.0000 O   0  0  0  0  0  0  0  0  0  0  0  0
   24.5560   -3.5273    0.0000 C   0  0  0  0  0  0  0  0  0  0  0  0
   25.7078   -2.8623    0.0000 C   0  0  0  0  0  0  0  0  0  0  0  0
  1  2  1  0  0  0  0
  1  3  2  0  0  0  0
  2  4  2  0  0  0  0
  3  5  1  0  0  0  0
  4  6  1  0  0  0  0
  5  6  2  0  0  0  0
  3  7  1  0  0  0  0
  7  8  1  0  0  0  0
  7  9  2  0  0  0  0
  8 10  1  0  0  0  0
 10 11  1  0  0  0  0
M  END
$$$$
