
  ACD/LABS05292610292D

  9  8  0  0  0  0  0  0  0  0  1 V2000
   15.1828   -5.6932    0.0000 C   0  0  0  0  0  0  0  0  0  0  0  0
   15.9520   -7.0255    0.0000 C   0  0  0  0  0  0  0  0  0  0  0  0
   15.1828   -8.3577    0.0000 C   0  0  0  0  0  0  0  0  0  0  0  0
   17.4903   -7.0255    0.0000 C   0  0  0  0  0  0  0  0  0  0  0  0
   18.2595   -8.3577    0.0000 C   0  0  0  0  0  0  0  0  0  0  0  0
   17.4903   -9.6899    0.0000 O   0  0  0  0  0  0  0  0  0  0  0  0
   19.7978   -8.3577    0.0000 O   0  0  0  0  0  0  0  0  0  0  0  0
   20.5669   -9.6899    0.0000 C   0  0  0  0  0  0  0  0  0  0  0  0
   22.1052   -9.6899    0.0000 C   0  0  0  0  0  0  0  0  0  0  0  0
  1  2  1  0  0  0  0
  2  3  1  0  0  0  0
  2  4  1  0  0  0  0
  4  5  1  0  0  0  0
  5  6  2  0  0  0  0
  5  7  1  0  0  0  0
  7  8  1  0  0  0  0
  8  9  1  0  0  0  0
M  END
$$$$
