
  ACD/LABS05292610342D

  5  4  0  0  0  0  0  0  0  0  1 V2000
   16.0241   -6.7141    0.0000 C   0  0  0  0  0  0  0  0  0  0  0  0
   17.1778   -6.0571    0.0000 C   0  0  0  0  0  0  0  0  0  0  0  0
   18.3316   -6.7301    0.0000 O   0  0  0  0  0  0  0  0  0  0  0  0
   19.4853   -6.0571    0.0000 C   0  0  0  0  0  0  0  0  0  0  0  0
   20.6390   -6.7141    0.0000 C   0  0  0  0  0  0  0  0  0  0  0  0
  1  2  2  0  0  0  0
  2  3  1  0  0  0  0
  3  4  1  0  0  0  0
  4  5  1  0  0  0  0
M  END
$$$$
