
  ACD/LABS05292610202D

  8  7  0  0  0  0  0  0  0  0  1 V2000
   24.3126   -6.1918    0.0000 C   0  0  0  0  0  0  0  0  0  0  0  0
   24.9776   -5.0400    0.0000 O   0  0  0  0  0  0  0  0  0  0  0  0
   22.9826   -6.1918    0.0000 O   0  0  0  0  0  0  0  0  0  0  0  0
   24.3126   -3.8882    0.0000 C   0  0  0  0  0  0  0  0  0  0  0  0
   24.9776   -2.7364    0.0000 C   0  0  0  0  0  0  0  0  0  0  0  0
   24.9776   -7.3436    0.0000 C   0  0  0  0  0  0  0  0  0  0  0  0
   24.3126   -8.4954    0.0000 C   0  0  0  0  0  0  0  0  0  0  0  0
   23.6476   -9.6473    0.0000 N   0  0  0  0  0  0  0  0  0  0  0  0
  1  2  1  0  0  0  0
  1  3  2  0  0  0  0
  2  4  1  0  0  0  0
  4  5  1  0  0  0  0
  1  6  1  0  0  0  0
  6  7  1  0  0  0  0
  7  8  3  0  0  0  0
M  END
$$$$
