
  ACD/LABS05292610052D

  9  8  0  0  0  0  0  0  0  0  1 V2000
   17.7602   -8.1643    0.0000 C   0  0  0  0  0  0  0  0  0  0  0  0
   17.7602   -9.4943    0.0000 C   0  0  0  0  0  0  0  0  0  0  0  0
   18.9120   -7.4993    0.0000 O   0  0  0  0  0  0  0  0  0  0  0  0
   18.9120   -6.1693    0.0000 C   0  0  0  0  0  0  0  0  0  0  0  0
   20.0638   -5.5043    0.0000 C   0  0  0  0  0  0  0  0  0  0  0  0
   17.7602   -5.5043    0.0000 O   0  0  0  0  0  0  0  0  0  0  0  0
   20.0638   -4.1743    0.0000 C   0  0  0  0  0  0  0  0  0  0  0  0
   21.2156   -3.5093    0.0000 C   0  0  0  0  0  0  0  0  0  0  0  0
   18.9120   -3.5093    0.0000 O   0  0  0  0  0  0  0  0  0  0  0  0
  1  2  1  0  0  0  0
  1  3  1  0  0  0  0
  4  5  1  0  0  0  0
  3  4  1  0  0  0  0
  4  6  2  0  0  0  0
  5  7  1  0  0  0  0
  7  8  1  0  0  0  0
  7  9  2  0  0  0  0
M  END
$$$$
