
  ACD/LABS05292610032D

  6  5  0  0  0  0  0  0  0  0  1 V2000
   17.6958   -8.1642    0.0000 C   0  0  0  0  0  0  0  0  0  0  0  0
   17.6958   -9.4942    0.0000 C   0  0  0  0  0  0  0  0  0  0  0  0
   18.8476   -7.4992    0.0000 O   0  0  0  0  0  0  0  0  0  0  0  0
   18.8476   -6.1692    0.0000 C   0  0  0  0  0  0  0  0  0  0  0  0
   19.9994   -5.5042    0.0000 C   0  0  0  0  0  0  0  0  0  0  0  0
   17.6958   -5.5042    0.0000 O   0  0  0  0  0  0  0  0  0  0  0  0
  1  2  1  0  0  0  0
  1  3  1  0  0  0  0
  4  5  1  0  0  0  0
  3  4  1  0  0  0  0
  4  6  2  0  0  0  0
M  END
$$$$
