
  ACD/LABS05292610242D

  5  4  0  0  0  0  0  0  0  0  1 V2000
   14.3336   -6.0670    0.0000 O   0  0  0  0  0  0  0  0  0  0  0  0
   15.6636   -6.0670    0.0000 C   0  0  0  0  0  0  0  0  0  0  0  0
   16.3286   -7.2189    0.0000 O   0  0  0  0  0  0  0  0  0  0  0  0
   17.6586   -7.2189    0.0000 C   0  0  0  0  0  0  0  0  0  0  0  0
   18.3236   -8.3707    0.0000 C   0  0  0  0  0  0  0  0  0  0  0  0
  1  2  2  0  0  0  0
  2  3  1  0  0  0  0
  3  4  1  0  0  0  0
  4  5  1  0  0  0  0
M  END
$$$$
