
  ACD/LABS05232614142D

  1  0  0  0  0  0  0  0  0  0  1 V2000
   15.1748   -5.9129    0.0000 B   0  0  0  0  0  0  0  0  0  0  0  0
M  END
$$$$

  ACD/LABS05232614142D

  3  2  0  0  0  0  0  0  0  0  1 V2000
   18.6480   -6.4616    0.0000 C   0  0  0  0  0  0  0  0  0  0  0  0
   19.2169   -5.4763    0.0000 C   0  0  0  0  0  0  0  0  0  0  0  0
   20.3546   -5.4763    0.0000 N   0  0  0  0  0  0  0  0  0  0  0  0
  1  2  1  0  0  0  0
  2  3  1  0  0  0  0
M  END
$$$$
