
  ACD/LABS05292610352D

  7  7  0  0  0  0  0  0  0  0  1 V2000
   22.5440   -6.5779    0.0000 C   0  0  0  0  0  0  0  0  0  0  0  0
   22.5440   -7.9079    0.0000 C   0  0  0  0  0  0  0  0  0  0  0  0
   21.3921   -5.9129    0.0000 C   0  0  0  0  0  0  0  0  0  0  0  0
   21.3921   -8.5729    0.0000 C   0  0  0  0  0  0  0  0  0  0  0  0
   20.2403   -6.5779    0.0000 C   0  0  0  0  0  0  0  0  0  0  0  0
   20.2403   -7.9079    0.0000 C   0  0  0  0  0  0  0  0  0  0  0  0
   21.3922   -4.5829    0.0000 F   0  0  0  0  0  0  0  0  0  0  0  0
  1  2  1  0  0  0  0
  1  3  2  0  0  0  0
  2  4  2  0  0  0  0
  3  5  1  0  0  0  0
  4  6  1  0  0  0  0
  5  6  2  0  0  0  0
  3  7  1  0  0  0  0
M  END
$$$$
