
  ACD/LABS05292610432D

  3  2  0  0  0  0  0  0  0  0  1 V2000
   21.6381   -5.5764    0.0000 C   0  0  0  0  0  0  0  0  0  0  0  0
   22.2999   -4.4227    0.0000 O   0  0  0  0  0  0  0  0  0  0  0  0
   22.2999   -6.7301    0.0000 N   0  0  0  0  0  0  0  0  0  0  0  0
  1  2  2  0  0  0  0
  1  3  1  0  0  0  0
M  END
$$$$
