
  ACD/LABS05292610452D

  8  7  0  0  0  0  0  0  0  0  1 V2000
   21.2491   -5.5373    0.0000 C   0  0  0  0  0  0  0  0  0  0  0  0
   21.9141   -4.3855    0.0000 O   0  0  0  0  0  0  0  0  0  0  0  0
   21.9141   -6.6891    0.0000 O   0  0  0  0  0  0  0  0  0  0  0  0
   19.9191   -5.5373    0.0000 C   0  0  0  0  0  0  0  0  0  0  0  0
   19.2541   -6.6891    0.0000 C   0  0  0  0  0  0  0  0  0  0  0  0
   17.9241   -6.6891    0.0000 C   0  0  0  0  0  0  0  0  0  0  0  0
   17.2591   -7.8409    0.0000 O   0  0  0  0  0  0  0  0  0  0  0  0
   17.2591   -5.5373    0.0000 O   0  0  0  0  0  0  0  0  0  0  0  0
  1  2  2  0  0  0  0
  1  3  1  0  0  0  0
  1  4  1  0  0  0  0
  4  5  2  0  0  0  0
  5  6  1  0  0  0  0
  6  7  2  0  0  0  0
  6  8  1  0  0  0  0
M  END
$$$$
