
  ACD/LABS05292610472D

  5  5  0  0  0  0  0  0  0  0  1 V2000
   21.1655   -7.2725    0.0000 C   0  0  0  0  0  0  0  0  0  0  0  0
   22.2421   -6.4917    0.0000 O   0  0  0  0  0  0  0  0  0  0  0  0
   21.5754   -8.5378    0.0000 C   0  0  0  0  0  0  0  0  0  0  0  0
   23.3174   -7.2744    0.0000 C   0  0  0  0  0  0  0  0  0  0  0  0
   22.9055   -8.5389    0.0000 C   0  0  0  0  0  0  0  0  0  0  0  0
  1  2  1  0  0  0  0
  1  3  2  0  0  0  0
  2  4  1  0  0  0  0
  3  5  1  0  0  0  0
  4  5  2  0  0  0  0
M  END
$$$$
