
  ACD/LABS05292610492D

  7  7  0  0  0  0  0  0  0  0  1 V2000
   20.8969   -6.7274    0.0000 C   0  0  0  0  0  0  0  0  0  0  0  0
   22.1119   -6.1864    0.0000 O   0  0  0  0  0  0  0  0  0  0  0  0
   21.0359   -8.0501    0.0000 C   0  0  0  0  0  0  0  0  0  0  0  0
   23.0019   -7.1748    0.0000 C   0  0  0  0  0  0  0  0  0  0  0  0
   22.3369   -8.3266    0.0000 C   0  0  0  0  0  0  0  0  0  0  0  0
   24.3246   -7.0358    0.0000 C   0  0  0  0  0  0  0  0  0  0  0  0
   24.8655   -5.8208    0.0000 O   0  0  0  0  0  0  0  0  0  0  0  0
  1  2  1  0  0  0  0
  1  3  2  0  0  0  0
  2  4  1  0  0  0  0
  3  5  1  0  0  0  0
  4  5  2  0  0  0  0
  4  6  1  0  0  0  0
  6  7  1  0  0  0  0
M  END
$$$$
