
  ACD/LABS06012610352D

  5  4  0  0  0  0  0  0  0  0  1 V2000
   16.8093   -8.5088    0.0000 C   0  0  0  0  0  0  0  0  0  0  0  0
   17.9630   -7.8518    0.0000 C   0  0  0  0  0  0  0  0  0  0  0  0
   19.1168   -8.5248    0.0000 O   0  0  0  0  0  0  0  0  0  0  0  0
   15.6555   -7.8358    0.0000 N   0  0  0  0  0  0  0  0  0  0  0  0
   17.9630   -6.5218    0.0000 O   0  0  0  0  0  0  0  0  0  0  0  0
  1  2  1  0  0  0  0
  2  3  2  0  0  0  0
  1  4  1  0  0  0  0
  2  5  1  0  0  0  0
M  END
$$$$
