
  ACD/LABS05232616102D

  4  3  0  0  0  0  0  0  0  0  1 V2000
   13.2920   -8.1002    0.0000 B   0  0  0  0  0  0  0  0  0  0  0  0
   13.2920   -6.7862    0.0000 F   0  0  0  0  0  0  0  0  0  0  0  0
   14.4299   -8.7572    0.0000 F   0  0  0  0  0  0  0  0  0  0  0  0
   12.1541   -8.7572    0.0000 F   0  0  0  0  0  0  0  0  0  0  0  0
  1  2  1  0  0  0  0
  1  3  1  0  0  0  0
  1  4  1  0  0  0  0
M  END
$$$$

  ACD/LABS05232616102D

 13 12  0  0  0  0  0  0  0  0  1 V2000
   18.3236   -5.7887    0.0000 C   0  0  0  0  0  0  0  0  0  0  0  0
   19.5895   -5.7887    0.0000 C   0  0  0  0  0  0  0  0  0  0  0  0
   20.2224   -6.8850    0.0000 C   0  0  0  0  0  0  0  0  0  0  0  0
   21.4883   -6.8850    0.0000 C   0  0  0  0  0  0  0  0  0  0  0  0
   22.1213   -7.9813    0.0000 C   0  0  0  0  0  0  0  0  0  0  0  0
   23.3872   -7.9813    0.0000 C   0  0  0  0  0  0  0  0  0  0  0  0
   24.0201   -9.0777    0.0000 C   0  0  0  0  0  0  0  0  0  0  0  0
   25.2860   -9.0777    0.0000 C   0  0  0  0  0  0  0  0  0  0  0  0
   25.9190  -10.1740    0.0000 C   0  0  0  0  0  0  0  0  0  0  0  0
   27.1849  -10.1740    0.0000 C   0  0  0  0  0  0  0  0  0  0  0  0
   27.8178  -11.2703    0.0000 C   0  0  0  0  0  0  0  0  0  0  0  0
   29.0837  -11.2703    0.0000 C   0  0  0  0  0  0  0  0  0  0  0  0
   29.7167  -12.3666    0.0000 N   0  0  0  0  0  0  0  0  0  0  0  0
  1  2  1  0  0  0  0
  2  3  1  0  0  0  0
  3  4  1  0  0  0  0
  4  5  1  0  0  0  0
  5  6  1  0  0  0  0
  6  7  1  0  0  0  0
  7  8  1  0  0  0  0
  8  9  1  0  0  0  0
  9 10  1  0  0  0  0
 10 11  1  0  0  0  0
 11 12  1  0  0  0  0
 12 13  1  0  0  0  0
M  END
$$$$
