
  ACD/LABS06012610382D

  7  6  0  0  0  0  0  0  0  0  1 V2000
   16.9106   -7.7036    0.0000 C   0  0  0  0  0  0  0  0  0  0  0  0
   18.0624   -8.3686    0.0000 C   0  0  0  0  0  0  0  0  0  0  0  0
   15.7587   -8.3686    0.0000 C   0  0  0  0  0  0  0  0  0  0  0  0
   14.6069   -7.7036    0.0000 C   0  0  0  0  0  0  0  0  0  0  0  0
   13.4551   -8.3686    0.0000 C   0  0  0  0  0  0  0  0  0  0  0  0
   12.3033   -7.7036    0.0000 C   0  0  0  0  0  0  0  0  0  0  0  0
   11.1515   -8.3686    0.0000 C   0  0  0  0  0  0  0  0  0  0  0  0
  1  2  1  0  0  0  0
  1  3  1  0  0  0  0
  3  4  1  0  0  0  0
  4  5  1  0  0  0  0
  5  6  1  0  0  0  0
  6  7  1  0  0  0  0
M  END
$$$$
