
  ACD/LABS06012610542D

 12 12  0  0  0  0  0  0  0  0  1 V2000
   21.9831   -7.4272    0.0000 C   0  0  0  0  0  0  0  0  0  0  0  0
   21.9831   -8.7572    0.0000 C   0  0  0  0  0  0  0  0  0  0  0  0
   20.8313   -6.7622    0.0000 C   0  0  0  0  0  0  0  0  0  0  0  0
   20.8313   -9.4222    0.0000 C   0  0  0  0  0  0  0  0  0  0  0  0
   19.6795   -7.4272    0.0000 C   0  0  0  0  0  0  0  0  0  0  0  0
   19.6795   -8.7572    0.0000 C   0  0  0  0  0  0  0  0  0  0  0  0
   20.8313   -5.4322    0.0000 Cl  0  0  0  0  0  0  0  0  0  0  0  0
   23.1350   -6.7622    0.0000 Cl  0  0  0  0  0  0  0  0  0  0  0  0
   23.1350   -9.4222    0.0000 Cl  0  0  0  0  0  0  0  0  0  0  0  0
   20.8313  -10.7522    0.0000 Cl  0  0  0  0  0  0  0  0  0  0  0  0
   18.5277   -9.4222    0.0000 Cl  0  0  0  0  0  0  0  0  0  0  0  0
   18.5277   -6.7622    0.0000 Cl  0  0  0  0  0  0  0  0  0  0  0  0
  1  2  1  0  0  0  0
  1  3  2  0  0  0  0
  2  4  2  0  0  0  0
  3  5  1  0  0  0  0
  4  6  1  0  0  0  0
  5  6  2  0  0  0  0
  3  7  1  0  0  0  0
  1  8  1  0  0  0  0
  2  9  1  0  0  0  0
  4 10  1  0  0  0  0
  6 11  1  0  0  0  0
  5 12  1  0  0  0  0
M  END
$$$$
