
  ACD/LABS06012611042D

 12 12  0  0  0  0  0  0  0  0  1 V2000
   21.8710   -8.3405    0.0000 C   0  0  0  0  0  0  0  0  0  0  0  0
   21.8710   -9.6705    0.0000 C   0  0  0  0  0  0  0  0  0  0  0  0
   20.7192   -7.6755    0.0000 C   0  0  0  0  0  0  0  0  0  0  0  0
   20.7192  -10.3355    0.0000 C   0  0  0  0  0  0  0  0  0  0  0  0
   19.5673   -8.3405    0.0000 C   0  0  0  0  0  0  0  0  0  0  0  0
   19.5673   -9.6705    0.0000 C   0  0  0  0  0  0  0  0  0  0  0  0
   20.7192   -6.3455    0.0000 C   0  0  0  0  0  0  0  0  0  0  0  0
   23.0228   -7.6755    0.0000 C   0  0  0  0  0  0  0  0  0  0  0  0
   23.0228  -10.3355    0.0000 C   0  0  0  0  0  0  0  0  0  0  0  0
   20.7192  -11.6655    0.0000 C   0  0  0  0  0  0  0  0  0  0  0  0
   18.4155  -10.3355    0.0000 C   0  0  0  0  0  0  0  0  0  0  0  0
   18.4155   -7.6755    0.0000 C   0  0  0  0  0  0  0  0  0  0  0  0
  1  2  1  0  0  0  0
  1  3  2  0  0  0  0
  2  4  2  0  0  0  0
  3  5  1  0  0  0  0
  4  6  1  0  0  0  0
  5  6  2  0  0  0  0
  3  7  1  0  0  0  0
  1  8  1  0  0  0  0
  2  9  1  0  0  0  0
  4 10  1  0  0  0  0
  6 11  1  0  0  0  0
  5 12  1  0  0  0  0
M  END
$$$$
