
  ACD/LABS06012610582D

 18 17  0  0  0  0  0  0  0  0  1 V2000
   10.8669   -7.2950    0.0000 C   0  0  0  0  0  0  0  0  0  0  0  0
   12.0187   -6.6300    0.0000 C   0  0  0  0  0  0  0  0  0  0  0  0
   13.1705   -7.2950    0.0000 C   0  0  0  0  0  0  0  0  0  0  0  0
   14.3223   -6.6300    0.0000 C   0  0  0  0  0  0  0  0  0  0  0  0
   15.4741   -7.2950    0.0000 C   0  0  0  0  0  0  0  0  0  0  0  0
   16.6260   -6.6300    0.0000 C   0  0  0  0  0  0  0  0  0  0  0  0
   17.7778   -7.2950    0.0000 C   0  0  0  0  0  0  0  0  0  0  0  0
   18.9296   -6.6300    0.0000 C   0  0  0  0  0  0  0  0  0  0  0  0
   20.0814   -7.2950    0.0000 C   0  0  0  0  0  0  0  0  0  0  0  0
   21.2332   -6.6300    0.0000 C   0  0  0  0  0  0  0  0  0  0  0  0
   22.3850   -7.2950    0.0000 C   0  0  0  0  0  0  0  0  0  0  0  0
   23.5368   -6.6300    0.0000 C   0  0  0  0  0  0  0  0  0  0  0  0
   24.6887   -7.2950    0.0000 C   0  0  0  0  0  0  0  0  0  0  0  0
   25.8405   -6.6300    0.0000 C   0  0  0  0  0  0  0  0  0  0  0  0
   26.9923   -7.2950    0.0000 C   0  0  0  0  0  0  0  0  0  0  0  0
   28.1441   -6.6300    0.0000 C   0  0  0  0  0  0  0  0  0  0  0  0
   29.2959   -7.2950    0.0000 O   0  0  0  0  0  0  0  0  0  0  0  0
   28.1441   -5.3000    0.0000 O   0  0  0  0  0  0  0  0  0  0  0  0
  1  2  1  0  0  0  0
  2  3  1  0  0  0  0
  3  4  1  0  0  0  0
  4  5  1  0  0  0  0
  5  6  1  0  0  0  0
  6  7  1  0  0  0  0
  7  8  1  0  0  0  0
  8  9  1  0  0  0  0
  9 10  1  0  0  0  0
 10 11  1  0  0  0  0
 11 12  1  0  0  0  0
 12 13  1  0  0  0  0
 13 14  1  0  0  0  0
 14 15  1  0  0  0  0
 15 16  1  0  0  0  0
 16 17  2  0  0  0  0
 16 18  1  0  0  0  0
M  END
$$$$
