
  ACD/LABS06012610572D

 16 15  0  0  0  0  0  0  0  0  1 V2000
   10.9669   -7.1508    0.0000 C   0  0  0  0  0  0  0  0  0  0  0  0
   12.1187   -6.4858    0.0000 C   0  0  0  0  0  0  0  0  0  0  0  0
   13.2705   -7.1508    0.0000 C   0  0  0  0  0  0  0  0  0  0  0  0
   14.4223   -6.4858    0.0000 C   0  0  0  0  0  0  0  0  0  0  0  0
   15.5741   -7.1508    0.0000 C   0  0  0  0  0  0  0  0  0  0  0  0
   16.7260   -6.4858    0.0000 C   0  0  0  0  0  0  0  0  0  0  0  0
   17.8778   -7.1508    0.0000 C   0  0  0  0  0  0  0  0  0  0  0  0
   19.0296   -6.4858    0.0000 C   0  0  0  0  0  0  0  0  0  0  0  0
   20.1814   -7.1508    0.0000 C   0  0  0  0  0  0  0  0  0  0  0  0
   21.3332   -6.4858    0.0000 C   0  0  0  0  0  0  0  0  0  0  0  0
   22.4850   -7.1508    0.0000 C   0  0  0  0  0  0  0  0  0  0  0  0
   23.6368   -6.4858    0.0000 C   0  0  0  0  0  0  0  0  0  0  0  0
   24.7887   -7.1508    0.0000 C   0  0  0  0  0  0  0  0  0  0  0  0
   25.9405   -6.4858    0.0000 C   0  0  0  0  0  0  0  0  0  0  0  0
   27.0923   -7.1508    0.0000 C   0  0  0  0  0  0  0  0  0  0  0  0
   28.2441   -6.4858    0.0000 C   0  0  0  0  0  0  0  0  0  0  0  0
  1  2  1  0  0  0  0
  2  3  1  0  0  0  0
  3  4  1  0  0  0  0
  4  5  1  0  0  0  0
  5  6  1  0  0  0  0
  6  7  1  0  0  0  0
  7  8  1  0  0  0  0
  8  9  1  0  0  0  0
  9 10  1  0  0  0  0
 10 11  1  0  0  0  0
 11 12  1  0  0  0  0
 12 13  1  0  0  0  0
 13 14  1  0  0  0  0
 14 15  1  0  0  0  0
 15 16  1  0  0  0  0
M  END
$$$$
