
  ACD/LABS06012611072D

  7  6  0  0  0  0  0  0  0  0  1 V2000
   16.5497   -6.4136    0.0000 C   0  0  0  0  0  0  0  0  0  0  0  0
   17.7015   -5.7486    0.0000 C   0  0  0  0  0  0  0  0  0  0  0  0
   18.8533   -6.4136    0.0000 C   0  0  0  0  0  0  0  0  0  0  0  0
   20.0051   -5.7486    0.0000 C   0  0  0  0  0  0  0  0  0  0  0  0
   21.1569   -6.4136    0.0000 C   0  0  0  0  0  0  0  0  0  0  0  0
   22.3088   -5.7486    0.0000 C   0  0  0  0  0  0  0  0  0  0  0  0
   22.3055   -4.4227    0.0000 O   0  0  0  0  0  0  0  0  0  0  0  0
  1  2  1  0  0  0  0
  2  3  1  0  0  0  0
  3  4  1  0  0  0  0
  4  5  1  0  0  0  0
  5  6  1  0  0  0  0
  6  7  2  0  0  0  0
M  END
$$$$
