
  ACD/LABS06012610552D

  8  7  0  0  0  0  0  0  0  0  1 V2000
   21.9460   -8.0321    0.0000 C   0  0  0  0  0  0  0  0  0  0  0  0
   23.0978   -7.3671    0.0000 C   0  0  0  0  0  0  0  0  0  0  0  0
   24.2496   -6.7021    0.0000 Cl  0  0  0  0  0  0  0  0  0  0  0  0
   23.7628   -8.5189    0.0000 Cl  0  0  0  0  0  0  0  0  0  0  0  0
   22.4328   -6.2153    0.0000 Cl  0  0  0  0  0  0  0  0  0  0  0  0
   22.6110   -9.1839    0.0000 Cl  0  0  0  0  0  0  0  0  0  0  0  0
   21.2810   -6.8803    0.0000 Cl  0  0  0  0  0  0  0  0  0  0  0  0
   20.7942   -8.6971    0.0000 Cl  0  0  0  0  0  0  0  0  0  0  0  0
  1  2  1  0  0  0  0
  2  3  1  0  0  0  0
  2  4  1  0  0  0  0
  2  5  1  0  0  0  0
  1  6  1  0  0  0  0
  1  7  1  0  0  0  0
  1  8  1  0  0  0  0
M  END
$$$$
