
  ACD/LABS06012611312D

 10  9  0  0  0  0  0  0  0  0  1 V2000
   16.6538   -5.6064    0.0000 C   0  0  0  0  0  0  0  0  0  0  0  0
   17.8057   -6.2714    0.0000 C   0  0  0  0  0  0  0  0  0  0  0  0
   18.9575   -5.6064    0.0000 C   0  0  0  0  0  0  0  0  0  0  0  0
   20.1093   -6.2714    0.0000 C   0  0  0  0  0  0  0  0  0  0  0  0
   21.2611   -5.6064    0.0000 C   0  0  0  0  0  0  0  0  0  0  0  0
   22.4129   -6.2714    0.0000 C   0  0  0  0  0  0  0  0  0  0  0  0
   15.4953   -6.2654    0.0000 O   0  0  0  0  0  0  0  0  0  0  0  0
   14.3416   -5.5924    0.0000 C   0  0  0  0  0  0  0  0  0  0  0  0
   14.3416   -4.2624    0.0000 O   0  0  0  0  0  0  0  0  0  0  0  0
   13.1878   -6.2654    0.0000 C   0  0  0  0  0  0  0  0  0  0  0  0
  1  2  1  0  0  0  0
  2  3  1  0  0  0  0
  3  4  1  0  0  0  0
  4  5  1  0  0  0  0
  5  6  1  0  0  0  0
  1  7  1  0  0  0  0
  7  8  1  0  0  0  0
  8  9  2  0  0  0  0
  8 10  1  0  0  0  0
M  END
$$$$
