
  ACD/LABS06012611422D

  9 10  0  0  0  0  0  0  0  0  1 V2000
   22.2556   -5.5363    0.0000 C   0  0  0  0  0  0  0  0  0  0  0  0
   22.2556   -6.8663    0.0000 C   0  0  0  0  0  0  0  0  0  0  0  0
   21.1037   -4.8713    0.0000 C   0  0  0  0  0  0  0  0  0  0  0  0
   21.1037   -7.5313    0.0000 C   0  0  0  0  0  0  0  0  0  0  0  0
   19.9519   -5.5363    0.0000 C   0  0  0  0  0  0  0  0  0  0  0  0
   19.9519   -6.8663    0.0000 C   0  0  0  0  0  0  0  0  0  0  0  0
   23.5205   -5.1254    0.0000 C   0  0  0  0  0  0  0  0  0  0  0  0
   24.3022   -6.2013    0.0000 C   0  0  0  0  0  0  0  0  0  0  0  0
   23.5206   -7.2773    0.0000 C   0  0  0  0  0  0  0  0  0  0  0  0
  1  3  2  0  0  0  0
  2  4  2  0  0  0  0
  3  5  1  0  0  0  0
  4  6  1  0  0  0  0
  5  6  2  0  0  0  0
  1  7  1  0  0  0  0
  1  2  1  0  0  0  0
  7  8  1  0  0  0  0
  2  9  1  0  0  0  0
  8  9  2  0  0  0  0
M  END
$$$$
