
  ACD/LABS06052615562D

  3  2  0  0  0  0  0  0  0  0  1 V2000
   21.5965   -4.7040    0.0000 C   0  0  0  0  0  0  0  0  0  0  0  0
   22.9265   -4.7040    0.0000 C   0  0  0  0  0  0  0  0  0  0  0  0
   23.5915   -5.8558    0.0000 I   0  0  0  0  0  0  0  0  0  0  0  0
  1  2  1  0  0  0  0
  2  3  1  0  0  0  0
M  END
$$$$
