
  ACD/LABS06052616082D

  7  6  0  0  0  0  0  0  0  0  1 V2000
   16.9984   -6.3656    0.0000 C   0  0  0  0  0  0  0  0  0  0  0  0
   18.1502   -5.7006    0.0000 C   0  0  0  0  0  0  0  0  0  0  0  0
   19.3020   -6.3656    0.0000 C   0  0  0  0  0  0  0  0  0  0  0  0
   18.1502   -4.3706    0.0000 C   0  0  0  0  0  0  0  0  0  0  0  0
   20.4538   -5.7006    0.0000 O   0  0  0  0  0  0  0  0  0  0  0  0
   21.6056   -6.3656    0.0000 C   0  0  0  0  0  0  0  0  0  0  0  0
   22.7574   -5.7006    0.0000 O   0  0  0  0  0  0  0  0  0  0  0  0
  1  2  1  0  0  0  0
  2  3  1  0  0  0  0
  2  4  1  0  0  0  0
  3  5  1  0  0  0  0
  5  6  1  0  0  0  0
  6  7  2  0  0  0  0
M  END
$$$$
