
  ACD/LABS06052616072D

 10 10  0  0  0  0  0  0  0  0  1 V2000
   16.9984   -6.3656    0.0000 C   0  0  0  0  0  0  0  0  0  0  0  0
   18.1502   -5.7006    0.0000 C   0  0  0  0  0  0  0  0  0  0  0  0
   19.3020   -6.3656    0.0000 C   0  0  0  0  0  0  0  0  0  0  0  0
   18.1502   -4.3706    0.0000 C   0  0  0  0  0  0  0  0  0  0  0  0
   19.3020   -7.6956    0.0000 C   0  0  0  0  0  0  0  0  0  0  0  0
   20.4538   -8.3606    0.0000 C   0  0  0  0  0  0  0  0  0  0  0  0
   18.1501   -8.3606    0.0000 C   0  0  0  0  0  0  0  0  0  0  0  0
   20.4537   -9.6907    0.0000 C   0  0  0  0  0  0  0  0  0  0  0  0
   18.1501   -9.6906    0.0000 C   0  0  0  0  0  0  0  0  0  0  0  0
   19.3019  -10.3556    0.0000 C   0  0  0  0  0  0  0  0  0  0  0  0
  1  2  1  0  0  0  0
  2  3  1  0  0  0  0
  2  4  1  0  0  0  0
  5  6  1  0  0  0  0
  5  7  2  0  0  0  0
  6  8  2  0  0  0  0
  7  9  1  0  0  0  0
  8 10  1  0  0  0  0
  9 10  2  0  0  0  0
  3  5  1  0  0  0  0
M  END
$$$$
