
  ACD/LABS06052616012D

  4  3  0  0  0  0  0  0  0  0  1 V2000
   17.0977   -6.2174    0.0000 C   0  0  0  0  0  0  0  0  0  0  0  0
   18.2515   -5.5604    0.0000 C   0  0  0  0  0  0  0  0  0  0  0  0
   19.4052   -6.2334    0.0000 C   0  0  0  0  0  0  0  0  0  0  0  0
   18.2515   -4.2304    0.0000 C   0  0  0  0  0  0  0  0  0  0  0  0
  1  2  1  0  0  0  0
  2  3  1  0  0  0  0
  2  4  1  0  0  0  0
M  END
$$$$
