
  ACD/LABS06052616062D

  5  4  0  0  0  0  0  0  0  0  1 V2000
   16.9984   -6.3656    0.0000 C   0  0  0  0  0  0  0  0  0  0  0  0
   18.1502   -5.7006    0.0000 C   0  0  0  0  0  0  0  0  0  0  0  0
   19.3020   -6.3656    0.0000 C   0  0  0  0  0  0  0  0  0  0  0  0
   18.1502   -4.3706    0.0000 C   0  0  0  0  0  0  0  0  0  0  0  0
   20.4538   -5.7006    0.0000 N   0  0  0  0  0  0  0  0  0  0  0  0
  1  2  1  0  0  0  0
  2  3  1  0  0  0  0
  2  4  1  0  0  0  0
  3  5  1  0  0  0  0
M  END
$$$$
