
  ACD/LABS06052616212D

  9  9  0  0  0  0  0  0  0  0  1 V2000
   17.6544   -5.5724    0.0000 C   0  0  0  0  0  0  0  0  0  0  0  0
   18.8062   -6.2374    0.0000 C   0  0  0  0  0  0  0  0  0  0  0  0
   18.8062   -7.5674    0.0000 C   0  0  0  0  0  0  0  0  0  0  0  0
   19.9580   -5.5724    0.0000 C   0  0  0  0  0  0  0  0  0  0  0  0
   19.9580   -4.2424    0.0000 C   0  0  0  0  0  0  0  0  0  0  0  0
   21.1099   -6.2374    0.0000 C   0  0  0  0  0  0  0  0  0  0  0  0
   21.1100   -3.5774    0.0000 C   0  0  0  0  0  0  0  0  0  0  0  0
   22.2617   -5.5724    0.0000 C   0  0  0  0  0  0  0  0  0  0  0  0
   22.2617   -4.2424    0.0000 C   0  0  0  0  0  0  0  0  0  0  0  0
  1  2  1  0  0  0  0
  2  3  1  0  0  0  0
  4  5  1  0  0  0  0
  4  6  2  0  0  0  0
  5  7  2  0  0  0  0
  6  8  1  0  0  0  0
  7  9  1  0  0  0  0
  8  9  2  0  0  0  0
  2  4  1  0  0  0  0
M  END
$$$$
