
  ACD/LABS06052616162D

 12 12  0  0  0  0  0  0  0  0  1 V2000
   21.4544   -7.7797    0.0000 C   0  0  0  0  0  0  0  0  0  0  0  0
   21.4544   -9.1097    0.0000 C   0  0  0  0  0  0  0  0  0  0  0  0
   20.3025   -7.1147    0.0000 C   0  0  0  0  0  0  0  0  0  0  0  0
   20.3025   -9.7747    0.0000 C   0  0  0  0  0  0  0  0  0  0  0  0
   19.1507   -7.7797    0.0000 C   0  0  0  0  0  0  0  0  0  0  0  0
   19.1507   -9.1097    0.0000 C   0  0  0  0  0  0  0  0  0  0  0  0
   17.9951   -7.1307    0.0000 C   0  0  0  0  0  0  0  0  0  0  0  0
   22.6100   -7.1307    0.0000 C   0  0  0  0  0  0  0  0  0  0  0  0
   17.9951   -5.8007    0.0000 O   0  0  0  0  0  0  0  0  0  0  0  0
   22.6100   -5.8007    0.0000 O   0  0  0  0  0  0  0  0  0  0  0  0
   23.7637   -7.8037    0.0000 O   0  0  0  0  0  0  0  0  0  0  0  0
   16.8413   -7.8037    0.0000 O   0  0  0  0  0  0  0  0  0  0  0  0
  1  2  1  0  0  0  0
  1  3  2  0  0  0  0
  2  4  2  0  0  0  0
  3  5  1  0  0  0  0
  4  6  1  0  0  0  0
  5  6  2  0  0  0  0
  5  7  1  0  0  0  0
  1  8  1  0  0  0  0
  7  9  2  0  0  0  0
  8 10  2  0  0  0  0
  8 11  1  0  0  0  0
  7 12  1  0  0  0  0
M  END
$$$$
