
  ACD/LABS06052616172D

  9  9  0  0  0  0  0  0  0  0  1 V2000
   21.4544   -7.7797    0.0000 C   0  0  0  0  0  0  0  0  0  0  0  0
   21.4544   -9.1097    0.0000 C   0  0  0  0  0  0  0  0  0  0  0  0
   20.3025   -7.1147    0.0000 C   0  0  0  0  0  0  0  0  0  0  0  0
   20.3025   -9.7747    0.0000 C   0  0  0  0  0  0  0  0  0  0  0  0
   19.1507   -7.7797    0.0000 C   0  0  0  0  0  0  0  0  0  0  0  0
   19.1507   -9.1097    0.0000 C   0  0  0  0  0  0  0  0  0  0  0  0
   17.9951   -7.1307    0.0000 C   0  0  0  0  0  0  0  0  0  0  0  0
   17.9951   -5.8007    0.0000 C   0  0  0  0  0  0  0  0  0  0  0  0
   16.8413   -7.8037    0.0000 C   0  0  0  0  0  0  0  0  0  0  0  0
  1  2  1  0  0  0  0
  1  3  2  0  0  0  0
  2  4  2  0  0  0  0
  3  5  1  0  0  0  0
  4  6  1  0  0  0  0
  5  6  2  0  0  0  0
  5  7  1  0  0  0  0
  7  8  2  0  0  0  0
  7  9  1  0  0  0  0
M  END
$$$$
