
  ACD/LABS06052616122D

  8  7  0  0  0  0  0  0  0  0  1 V2000
   16.9977   -6.3716    0.0000 C   0  0  0  0  0  0  0  0  0  0  0  0
   18.1495   -5.7066    0.0000 C   0  0  0  0  0  0  0  0  0  0  0  0
   19.3013   -6.3716    0.0000 C   0  0  0  0  0  0  0  0  0  0  0  0
   18.1495   -4.3766    0.0000 C   0  0  0  0  0  0  0  0  0  0  0  0
   20.4532   -5.7066    0.0000 C   0  0  0  0  0  0  0  0  0  0  0  0
   21.6050   -6.3716    0.0000 O   0  0  0  0  0  0  0  0  0  0  0  0
   22.7568   -5.7066    0.0000 C   0  0  0  0  0  0  0  0  0  0  0  0
   22.7568   -4.3766    0.0000 O   0  0  0  0  0  0  0  0  0  0  0  0
  1  2  1  0  0  0  0
  2  3  1  0  0  0  0
  2  4  1  0  0  0  0
  3  5  1  0  0  0  0
  5  6  1  0  0  0  0
  6  7  1  0  0  0  0
  7  8  2  0  0  0  0
M  END
$$$$
