
  ACD/LABS06052616202D

  7  6  0  0  0  0  0  0  0  0  1 V2000
   17.6544   -5.5724    0.0000 C   0  0  0  0  0  0  0  0  0  0  0  0
   18.8062   -6.2374    0.0000 C   0  0  0  0  0  0  0  0  0  0  0  0
   18.8062   -7.5674    0.0000 C   0  0  0  0  0  0  0  0  0  0  0  0
   19.9580   -5.5724    0.0000 O   0  0  0  0  0  0  0  0  0  0  0  0
   21.1098   -6.2374    0.0000 C   0  0  0  0  0  0  0  0  0  0  0  0
   21.1098   -7.5674    0.0000 C   0  0  0  0  0  0  0  0  0  0  0  0
   22.2616   -5.5724    0.0000 O   0  0  0  0  0  0  0  0  0  0  0  0
  1  2  1  0  0  0  0
  2  3  1  0  0  0  0
  2  4  1  0  0  0  0
  4  5  1  0  0  0  0
  5  6  1  0  0  0  0
  5  7  2  0  0  0  0
M  END
$$$$
