
  ACD/LABS06052616242D

 10 11  0  0  0  0  0  0  0  0  1 V2000
   19.9580   -5.5724    0.0000 C   0  0  0  0  0  0  0  0  0  0  0  0
   19.9580   -4.2424    0.0000 C   0  0  0  0  0  0  0  0  0  0  0  0
   21.1099   -6.2374    0.0000 C   0  0  0  0  0  0  0  0  0  0  0  0
   21.1100   -3.5774    0.0000 C   0  0  0  0  0  0  0  0  0  0  0  0
   22.2617   -5.5724    0.0000 C   0  0  0  0  0  0  0  0  0  0  0  0
   22.2617   -4.2424    0.0000 C   0  0  0  0  0  0  0  0  0  0  0  0
   24.5654   -4.2424    0.0000 C   0  0  0  0  0  0  0  0  0  0  0  0
   24.5654   -5.5724    0.0000 N   0  0  0  0  0  0  0  0  0  0  0  0
   23.4135   -3.5774    0.0000 C   0  0  0  0  0  0  0  0  0  0  0  0
   23.4135   -6.2374    0.0000 C   0  0  0  0  0  0  0  0  0  0  0  0
  1  2  1  0  0  0  0
  1  3  2  0  0  0  0
  2  4  2  0  0  0  0
  3  5  1  0  0  0  0
  4  6  1  0  0  0  0
  7  8  1  0  0  0  0
  7  9  2  0  0  0  0
  8 10  2  0  0  0  0
  9  6  1  0  0  0  0
 10  5  1  0  0  0  0
  6  5  2  0  0  0  0
M  END
$$$$
