
  ACD/LABS05232612202D

  5  4  0  0  0  0  0  0  0  0  2 V2000
   22.1453   -7.8999    0.0000 B   0  5  0  0  0  0  0  0  0  0  0  0
   22.3216   -6.3936    0.0000 F   0  0  0  0  0  0  0  0  0  0  0  0
   23.2349   -9.0376    0.0000 F   0  0  0  0  0  0  0  0  0  0  0  0
   20.5269   -8.5729    0.0000 F   0  0  0  0  0  0  0  0  0  0  0  0
   23.4272   -7.5474    0.0000 F   0  0  0  0  0  0  0  0  0  0  0  0
  1  2  1  0  0  0  0
  1  3  1  0  0  0  0
  1  4  1  0  0  0  0
  1  5  1  0  0  0  0
M  CHG  1   1  -1
M  END
$$$$

  ACD/LABS05232612202D

  1  0  0  0  0  0  0  0  0  0  2 V2000
   18.1393   -6.9224    0.0000 K   0  3  0  0  0  0  0  0  0  0  0  0
M  CHG  1   1   1
M  END
$$$$
