
  ACD/LABS06052616282D

  8  7  0  0  0  0  0  0  0  0  1 V2000
   18.5880   -6.4959    0.0000 C   0  0  0  0  0  0  0  0  0  0  0  0
   19.9180   -6.4959    0.0000 C   0  0  0  0  0  0  0  0  0  0  0  0
   20.5830   -5.3440    0.0000 C   0  0  0  0  0  0  0  0  0  0  0  0
   17.9230   -5.3440    0.0000 C   0  0  0  0  0  0  0  0  0  0  0  0
   21.9130   -5.3440    0.0000 O   0  0  0  0  0  0  0  0  0  0  0  0
   19.9180   -4.1922    0.0000 O   0  0  0  0  0  0  0  0  0  0  0  0
   18.5880   -4.1922    0.0000 O   0  0  0  0  0  0  0  0  0  0  0  0
   16.5930   -5.3440    0.0000 O   0  0  0  0  0  0  0  0  0  0  0  0
  1  2  2  0  0  0  0
  2  3  1  0  0  0  0
  1  4  1  0  0  0  0
  3  5  1  0  0  0  0
  3  6  2  0  0  0  0
  4  7  2  0  0  0  0
  4  8  1  0  0  0  0
M  END
$$$$
