
  ACD/LABS06052616292D

  7  7  0  0  0  0  0  0  0  0  1 V2000
   18.7668   -4.2916    0.0000 C   0  0  0  0  0  0  0  0  0  0  0  0
   20.0895   -4.4306    0.0000 C   0  0  0  0  0  0  0  0  0  0  0  0
   20.3660   -5.7315    0.0000 C   0  0  0  0  0  0  0  0  0  0  0  0
   18.2258   -5.5066    0.0000 C   0  0  0  0  0  0  0  0  0  0  0  0
   21.5810   -6.2725    0.0000 O   0  0  0  0  0  0  0  0  0  0  0  0
   19.2142   -6.3965    0.0000 O   0  0  0  0  0  0  0  0  0  0  0  0
   16.9249   -5.7831    0.0000 O   0  0  0  0  0  0  0  0  0  0  0  0
  1  2  2  0  0  0  0
  2  3  1  0  0  0  0
  1  4  1  0  0  0  0
  3  5  2  0  0  0  0
  4  6  1  0  0  0  0
  4  7  2  0  0  0  0
  6  3  1  0  0  0  0
M  END
$$$$
