
  ACD/LABS05232614292D

  4  3  0  0  0  0  0  0  0  0  1 V2000
   15.5594   -6.3375    0.0000 N   0  0  0  0  0  0  0  0  0  0  0  0
   17.1969   -5.3921    0.0000 C   0  0  0  0  0  0  0  0  0  0  0  0
   13.9219   -5.3921    0.0000 C   0  0  0  0  0  0  0  0  0  0  0  0
   15.5594   -8.2284    0.0000 C   0  0  0  0  0  0  0  0  0  0  0  0
  1  2  1  0  0  0  0
  1  3  1  0  0  0  0
  1  4  1  0  0  0  0
M  END
$$$$

  ACD/LABS05232614292D

  1  0  0  0  0  0  0  0  0  0  1 V2000
   19.8699   -7.1948    0.0000 B   0  0  0  0  0  0  0  0  0  0  0  0
M  END
$$$$
