
  ACD/LABS06052617092D

  4  4  0  0  0  0  0  0  0  0  1 V2000
   18.5969   -6.6500    0.0000 O   0  0  0  0  0  0  0  0  0  0  0  0
   18.5969   -5.3200    0.0000 C   0  0  0  0  0  0  0  0  0  0  0  0
   19.7487   -5.9850    0.0000 C   0  0  0  0  0  0  0  0  0  0  0  0
   21.0787   -5.9850    0.0000 C   0  0  0  0  0  0  0  0  0  0  0  0
  1  2  1  0  0  0  0
  2  3  1  0  0  0  0
  3  1  1  0  0  0  0
  3  4  1  0  0  0  0
M  END
$$$$
