
  ACD/LABS06052617022D

  4  3  0  0  0  0  0  0  0  0  1 V2000
   18.2194   -6.8343    0.0000 O   0  0  0  0  0  0  0  0  0  0  0  0
   19.5494   -6.8343    0.0000 C   0  0  0  0  0  0  0  0  0  0  0  0
   20.2144   -5.6825    0.0000 O   0  0  0  0  0  0  0  0  0  0  0  0
   17.5544   -7.9861    0.0000 C   0  0  0  0  0  0  0  0  0  0  0  0
  1  2  1  0  0  0  0
  2  3  2  0  0  0  0
  1  4  1  0  0  0  0
M  END
$$$$
