
  ACD/LABS06052617002D

  7  7  0  0  0  0  0  0  0  0  1 V2000
   19.4353   -7.4752    0.0000 C   0  0  0  0  0  0  0  0  0  0  0  0
   19.4353   -8.8052    0.0000 C   0  0  0  0  0  0  0  0  0  0  0  0
   18.2834   -6.8102    0.0000 C   0  0  0  0  0  0  0  0  0  0  0  0
   18.2834   -9.4702    0.0000 C   0  0  0  0  0  0  0  0  0  0  0  0
   17.1317   -7.4752    0.0000 C   0  0  0  0  0  0  0  0  0  0  0  0
   17.1317   -8.8052    0.0000 C   0  0  0  0  0  0  0  0  0  0  0  0
   18.2835   -5.4802    0.0000 C   0  0  0  0  0  0  0  0  0  0  0  0
  1  2  1  0  0  0  0
  1  3  1  0  0  0  0
  2  4  1  0  0  0  0
  3  5  1  0  0  0  0
  4  6  1  0  0  0  0
  5  6  1  0  0  0  0
  3  7  1  0  0  0  0
M  END
$$$$
