
  ACD/LABS06052616552D

 10 10  0  0  0  0  0  0  0  0  1 V2000
   21.6146   -7.3270    0.0000 C   0  0  0  0  0  0  0  0  0  0  0  0
   21.6146   -8.6570    0.0000 C   0  0  0  0  0  0  0  0  0  0  0  0
   20.4628   -6.6620    0.0000 C   0  0  0  0  0  0  0  0  0  0  0  0
   20.4628   -9.3220    0.0000 C   0  0  0  0  0  0  0  0  0  0  0  0
   19.3110   -7.3270    0.0000 C   0  0  0  0  0  0  0  0  0  0  0  0
   19.3110   -8.6570    0.0000 C   0  0  0  0  0  0  0  0  0  0  0  0
   20.4628   -5.3320    0.0000 C   0  0  0  0  0  0  0  0  0  0  0  0
   21.6146   -4.6670    0.0000 O   0  0  0  0  0  0  0  0  0  0  0  0
   19.3110   -4.6670    0.0000 O   0  0  0  0  0  0  0  0  0  0  0  0
   19.3110   -3.3370    0.0000 C   0  0  0  0  0  0  0  0  0  0  0  0
  1  2  1  0  0  0  0
  1  3  2  0  0  0  0
  2  4  2  0  0  0  0
  3  5  1  0  0  0  0
  4  6  1  0  0  0  0
  5  6  2  0  0  0  0
  3  7  1  0  0  0  0
  7  8  2  0  0  0  0
  7  9  1  0  0  0  0
  9 10  1  0  0  0  0
M  END
$$$$
