
  ACD/LABS06052617052D

  7  6  0  0  0  0  0  0  0  0  1 V2000
   16.1561   -6.5579    0.0000 C   0  0  0  0  0  0  0  0  0  0  0  0
   17.3080   -5.8929    0.0000 O   0  0  0  0  0  0  0  0  0  0  0  0
   18.4598   -6.5579    0.0000 C   0  0  0  0  0  0  0  0  0  0  0  0
   18.4598   -7.8879    0.0000 O   0  0  0  0  0  0  0  0  0  0  0  0
   19.6116   -5.8929    0.0000 C   0  0  0  0  0  0  0  0  0  0  0  0
   19.6116   -4.5629    0.0000 C   0  0  0  0  0  0  0  0  0  0  0  0
   20.7634   -6.5579    0.0000 C   0  0  0  0  0  0  0  0  0  0  0  0
  1  2  1  0  0  0  0
  2  3  1  0  0  0  0
  3  4  2  0  0  0  0
  3  5  1  0  0  0  0
  5  6  2  0  0  0  0
  5  7  1  0  0  0  0
M  END
$$$$
