
  ACD/LABS06052617012D

  6  6  0  0  0  0  0  0  0  0  1 V2000
   19.3595   -7.5662    0.0000 C   0  0  0  0  0  0  0  0  0  0  0  0
   18.9485   -8.8311    0.0000 C   0  0  0  0  0  0  0  0  0  0  0  0
   18.2835   -6.7844    0.0000 C   0  0  0  0  0  0  0  0  0  0  0  0
   17.2075   -7.5662    0.0000 C   0  0  0  0  0  0  0  0  0  0  0  0
   17.6185   -8.8311    0.0000 C   0  0  0  0  0  0  0  0  0  0  0  0
   18.2835   -5.4544    0.0000 C   0  0  0  0  0  0  0  0  0  0  0  0
  1  2  1  0  0  0  0
  1  3  1  0  0  0  0
  3  4  1  0  0  0  0
  4  5  1  0  0  0  0
  3  6  1  0  0  0  0
  5  2  1  0  0  0  0
M  END
$$$$
