
  ACD/LABS06052617232D

 11 11  0  0  0  0  0  0  0  0  1 V2000
   23.8410   -7.7597    0.0000 C   0  0  0  0  0  0  0  0  0  0  0  0
   23.8410   -9.0897    0.0000 C   0  0  0  0  0  0  0  0  0  0  0  0
   22.6892   -7.0947    0.0000 C   0  0  0  0  0  0  0  0  0  0  0  0
   22.6892   -9.7547    0.0000 C   0  0  0  0  0  0  0  0  0  0  0  0
   21.5374   -7.7597    0.0000 C   0  0  0  0  0  0  0  0  0  0  0  0
   21.5374   -9.0897    0.0000 C   0  0  0  0  0  0  0  0  0  0  0  0
   22.6892  -11.0847    0.0000 C   0  0  0  0  0  0  0  0  0  0  0  0
   23.8410  -11.7497    0.0000 O   0  0  0  0  0  0  0  0  0  0  0  0
   21.5374  -11.7497    0.0000 O   0  0  0  0  0  0  0  0  0  0  0  0
   21.5374  -13.0797    0.0000 C   0  0  0  0  0  0  0  0  0  0  0  0
   20.3855   -9.7547    0.0000 O   0  0  0  0  0  0  0  0  0  0  0  0
  1  2  1  0  0  0  0
  1  3  2  0  0  0  0
  2  4  2  0  0  0  0
  3  5  1  0  0  0  0
  4  6  1  0  0  0  0
  5  6  2  0  0  0  0
  4  7  1  0  0  0  0
  7  8  2  0  0  0  0
  7  9  1  0  0  0  0
  9 10  1  0  0  0  0
  6 11  1  0  0  0  0
M  END
$$$$
