
  ACD/LABS06052617242D

  6  6  0  0  0  0  0  0  0  0  1 V2000
   28.1044   -5.8248    0.0000 C   0  0  0  0  0  0  0  0  0  0  0  0
   28.1044   -7.1548    0.0000 C   0  0  0  0  0  0  0  0  0  0  0  0
   26.9525   -5.1598    0.0000 N   0  0  0  0  0  0  0  0  0  0  0  0
   26.9525   -7.8198    0.0000 O   0  0  0  0  0  0  0  0  0  0  0  0
   25.8007   -5.8248    0.0000 C   0  0  0  0  0  0  0  0  0  0  0  0
   25.8007   -7.1548    0.0000 C   0  0  0  0  0  0  0  0  0  0  0  0
  1  2  1  0  0  0  0
  1  3  1  0  0  0  0
  2  4  1  0  0  0  0
  3  5  1  0  0  0  0
  4  6  1  0  0  0  0
  5  6  1  0  0  0  0
M  END
$$$$
