
  ACD/LABS05262611362D

  9  9  0  0  0  0  0  0  0  0  1 V2000
   21.6146   -7.0065    0.0000 C   0  0  0  0  0  0  0  0  0  0  0  0
   21.6146   -8.3365    0.0000 C   0  0  0  0  0  0  0  0  0  0  0  0
   20.4628   -6.3415    0.0000 C   0  0  0  0  0  0  0  0  0  0  0  0
   20.4628   -9.0015    0.0000 C   0  0  0  0  0  0  0  0  0  0  0  0
   19.3110   -7.0065    0.0000 C   0  0  0  0  0  0  0  0  0  0  0  0
   19.3110   -8.3365    0.0000 C   0  0  0  0  0  0  0  0  0  0  0  0
   20.4628   -5.0115    0.0000 N   0  0  0  0  0  0  0  0  0  0  0  0
   21.6146   -4.3465    0.0000 C   0  0  0  0  0  0  0  0  0  0  0  0
   19.3110   -4.3465    0.0000 C   0  0  0  0  0  0  0  0  0  0  0  0
  1  2  1  0  0  0  0
  1  3  2  0  0  0  0
  2  4  2  0  0  0  0
  3  5  1  0  0  0  0
  4  6  1  0  0  0  0
  5  6  2  0  0  0  0
  3  7  1  0  0  0  0
  7  8  1  0  0  0  0
  7  9  1  0  0  0  0
M  END
$$$$
