
  ACD/LABS05232615042D

  9  9  0  0  0  0  0  0  0  0  1 V2000
   19.8143   -7.3450    0.0000 B   0  0  0  0  0  0  0  0  0  0  0  0
   19.9466   -6.0860    0.0000 O   0  0  0  0  0  0  0  0  0  0  0  0
   20.9708   -7.8599    0.0000 O   0  0  0  0  0  0  0  0  0  0  0  0
   18.7180   -7.9780    0.0000 C   0  0  0  0  0  0  0  0  0  0  0  0
   17.6217   -7.3450    0.0000 C   0  0  0  0  0  0  0  0  0  0  0  0
   21.1849   -5.8229    0.0000 C   0  0  0  0  0  0  0  0  0  0  0  0
   21.8178   -6.9192    0.0000 C   0  0  0  0  0  0  0  0  0  0  0  0
   16.5254   -7.9780    0.0000 C   0  0  0  0  0  0  0  0  0  0  0  0
   15.4291   -7.3450    0.0000 C   0  0  0  0  0  0  0  0  0  0  0  0
  1  2  1  0  0  0  0
  1  3  1  0  0  0  0
  1  4  1  0  0  0  0
  4  5  1  0  0  0  0
  2  6  1  0  0  0  0
  6  7  1  0  0  0  0
  7  3  1  0  0  0  0
  5  8  1  0  0  0  0
  8  9  1  0  0  0  0
M  END
$$$$
