
  ACD/LABS05232614432D

  7  6  0  0  0  0  0  0  0  0  1 V2000
   18.8407   -8.3441    0.0000 B   0  0  0  0  0  0  0  0  0  0  0  0
   19.9786   -7.6871    0.0000 O   0  0  0  0  0  0  0  0  0  0  0  0
   18.8407   -9.6580    0.0000 O   0  0  0  0  0  0  0  0  0  0  0  0
   17.7027   -7.6871    0.0000 C   0  0  0  0  0  0  0  0  0  0  0  0
   16.5648   -8.3441    0.0000 C   0  0  0  0  0  0  0  0  0  0  0  0
   15.4269   -7.6871    0.0000 C   0  0  0  0  0  0  0  0  0  0  0  0
   14.2889   -8.3441    0.0000 C   0  0  0  0  0  0  0  0  0  0  0  0
  1  2  1  0  0  0  0
  1  3  1  0  0  0  0
  1  4  1  0  0  0  0
  4  5  1  0  0  0  0
  5  6  1  0  0  0  0
  6  7  1  0  0  0  0
M  END
$$$$
