
  ACD/LABS05232614352D

  8  7  0  0  0  0  0  0  0  0  1 V2000
   19.8512   -7.2629    0.0000 B   0  0  0  0  0  0  0  0  0  0  0  0
   18.7549   -7.8959    0.0000 O   0  0  0  0  0  0  0  0  0  0  0  0
   17.6586   -7.2629    0.0000 C   0  0  0  0  0  0  0  0  0  0  0  0
   16.5623   -7.8959    0.0000 C   0  0  0  0  0  0  0  0  0  0  0  0
   15.4659   -7.2629    0.0000 C   0  0  0  0  0  0  0  0  0  0  0  0
   14.3696   -7.8959    0.0000 C   0  0  0  0  0  0  0  0  0  0  0  0
   19.8512   -5.9970    0.0000 Cl  0  0  0  0  0  0  0  0  0  0  0  0
   20.9475   -7.8959    0.0000 Cl  0  0  0  0  0  0  0  0  0  0  0  0
  1  2  1  0  0  0  0
  2  3  1  0  0  0  0
  3  4  1  0  0  0  0
  4  5  1  0  0  0  0
  5  6  1  0  0  0  0
  1  7  1  0  0  0  0
  1  8  1  0  0  0  0
M  END
$$$$
