
  ACD/LABS05232614552D

  8  7  0  0  0  0  0  0  0  0  1 V2000
   20.1859   -9.5824    0.0000 B   0  0  0  0  0  0  0  0  0  0  0  0
   21.5182  -10.3516    0.0000 C   0  0  0  0  0  0  0  0  0  0  0  0
   22.8504   -9.5824    0.0000 C   0  0  0  0  0  0  0  0  0  0  0  0
   24.1826  -10.3516    0.0000 C   0  0  0  0  0  0  0  0  0  0  0  0
   20.1859   -8.0441    0.0000 Cl  0  0  0  0  0  0  0  0  0  0  0  0
   18.8537  -10.3516    0.0000 Cl  0  0  0  0  0  0  0  0  0  0  0  0
   25.5148   -9.5824    0.0000 C   0  0  0  0  0  0  0  0  0  0  0  0
   26.8470  -10.3516    0.0000 C   0  0  0  0  0  0  0  0  0  0  0  0
  1  2  1  0  0  0  0
  2  3  1  0  0  0  0
  3  4  1  0  0  0  0
  1  5  1  0  0  0  0
  1  6  1  0  0  0  0
  4  7  1  0  0  0  0
  7  8  1  0  0  0  0
M  END
$$$$
