
  ACD/LABS05232615312D

 11 11  0  0  0  0  0  0  0  0  1 V2000
   17.7142   -7.4467    0.0000 C   0  0  0  0  0  0  0  0  0  0  0  0
   16.6179   -8.0796    0.0000 C   0  0  0  0  0  0  0  0  0  0  0  0
   15.5216   -7.4467    0.0000 C   0  0  0  0  0  0  0  0  0  0  0  0
   19.9068   -7.4467    0.0000 B   0  0  0  0  0  0  0  0  0  0  0  0
   20.0392   -6.1877    0.0000 O   0  0  0  0  0  0  0  0  0  0  0  0
   21.0633   -7.9616    0.0000 O   0  0  0  0  0  0  0  0  0  0  0  0
   21.2774   -5.9245    0.0000 C   0  0  0  0  0  0  0  0  0  0  0  0
   21.9104   -7.0208    0.0000 C   0  0  0  0  0  0  0  0  0  0  0  0
   18.8105   -8.0796    0.0000 O   0  0  0  0  0  0  0  0  0  0  0  0
   14.4253   -8.0796    0.0000 C   0  0  0  0  0  0  0  0  0  0  0  0
   13.2680   -7.4192    0.0000 C   0  0  0  0  0  0  0  0  0  0  0  0
  1  2  1  0  0  0  0
  2  3  1  0  0  0  0
  4  5  1  0  0  0  0
  4  6  1  0  0  0  0
  5  7  1  0  0  0  0
  7  8  1  0  0  0  0
  8  6  1  0  0  0  0
  4  9  1  0  0  0  0
  1  9  1  0  0  0  0
  3 10  1  0  0  0  0
 10 11  1  0  0  0  0
M  END
$$$$
