
  ACD/LABS05232615352D

 12 12  0  0  0  0  0  0  0  0  1 V2000
   17.5989   -7.4467    0.0000 C   0  0  0  0  0  0  0  0  0  0  0  0
   16.5026   -8.0796    0.0000 C   0  0  0  0  0  0  0  0  0  0  0  0
   15.4063   -7.4467    0.0000 C   0  0  0  0  0  0  0  0  0  0  0  0
   19.7915   -7.4467    0.0000 B   0  0  0  0  0  0  0  0  0  0  0  0
   19.9238   -6.1877    0.0000 O   0  0  0  0  0  0  0  0  0  0  0  0
   20.9480   -7.9616    0.0000 O   0  0  0  0  0  0  0  0  0  0  0  0
   21.1621   -5.9245    0.0000 C   0  0  0  0  0  0  0  0  0  0  0  0
   21.7950   -7.0208    0.0000 C   0  0  0  0  0  0  0  0  0  0  0  0
   18.6952   -8.0796    0.0000 O   0  0  0  0  0  0  0  0  0  0  0  0
   14.3100   -8.0796    0.0000 C   0  0  0  0  0  0  0  0  0  0  0  0
   13.2137   -7.4467    0.0000 C   0  0  0  0  0  0  0  0  0  0  0  0
   12.1174   -8.0796    0.0000 C   0  0  0  0  0  0  0  0  0  0  0  0
  1  2  1  0  0  0  0
  2  3  1  0  0  0  0
  4  5  1  0  0  0  0
  4  6  1  0  0  0  0
  5  7  1  0  0  0  0
  7  8  1  0  0  0  0
  8  6  1  0  0  0  0
  4  9  1  0  0  0  0
  1  9  1  0  0  0  0
  3 10  1  0  0  0  0
 10 11  1  0  0  0  0
 11 12  1  0  0  0  0
M  END
$$$$
