
  ACD/LABS05292610132D

  9  9  0  0  0  0  0  0  0  0  1 V2000
   24.6592   -7.6555    0.0000 C   0  0  0  0  0  0  0  0  0  0  0  0
   24.6592   -8.9855    0.0000 C   0  0  0  0  0  0  0  0  0  0  0  0
   23.5074   -6.9905    0.0000 C   0  0  0  0  0  0  0  0  0  0  0  0
   23.5074   -9.6505    0.0000 C   0  0  0  0  0  0  0  0  0  0  0  0
   22.3555   -7.6555    0.0000 C   0  0  0  0  0  0  0  0  0  0  0  0
   22.3555   -8.9855    0.0000 C   0  0  0  0  0  0  0  0  0  0  0  0
   23.5074   -5.6605    0.0000 N   0  0  0  0  0  0  0  0  0  0  0  0
   24.6592   -4.9955    0.0000 C   0  0  0  0  0  0  0  0  0  0  0  0
   24.6592   -3.6655    0.0000 C   0  0  0  0  0  0  0  0  0  0  0  0
  1  2  1  0  0  0  0
  1  3  2  0  0  0  0
  2  4  2  0  0  0  0
  3  5  1  0  0  0  0
  4  6  1  0  0  0  0
  5  6  2  0  0  0  0
  3  7  1  0  0  0  0
  7  8  1  0  0  0  0
  8  9  1  0  0  0  0
M  END
$$$$
