
  ACD/LABS05232616332D

 25 28  0  0  0  0  0  0  0  0  2 V2000
   23.1197   -8.0281    0.0000 C   0  0  0  0  0  0  0  0  0  0  0  0
   23.1197   -9.3581    0.0000 C   0  0  0  0  0  0  0  0  0  0  0  0
   21.9679   -7.3631    0.0000 C   0  0  0  0  0  0  0  0  0  0  0  0
   21.9679  -10.0231    0.0000 C   0  0  0  0  0  0  0  0  0  0  0  0
   20.8161   -8.0281    0.0000 C   0  0  0  0  0  0  0  0  0  0  0  0
   20.8161   -9.3581    0.0000 C   0  0  0  0  0  0  0  0  0  0  0  0
   21.9679  -11.3531    0.0000 B   0  5  0  0  0  0  0  0  0  0  0  0
   20.6379  -11.3531    0.0000 C   0  0  0  0  0  0  0  0  0  0  0  0
   19.9729  -12.5049    0.0000 C   0  0  0  0  0  0  0  0  0  0  0  0
   19.9729  -10.2013    0.0000 C   0  0  0  0  0  0  0  0  0  0  0  0
   18.6429  -12.5049    0.0000 C   0  0  0  0  0  0  0  0  0  0  0  0
   18.6429  -10.2013    0.0000 C   0  0  0  0  0  0  0  0  0  0  0  0
   17.9779  -11.3531    0.0000 C   0  0  0  0  0  0  0  0  0  0  0  0
   23.2979  -11.3531    0.0000 C   0  0  0  0  0  0  0  0  0  0  0  0
   23.9629  -10.2013    0.0000 C   0  0  0  0  0  0  0  0  0  0  0  0
   23.9629  -12.5049    0.0000 C   0  0  0  0  0  0  0  0  0  0  0  0
   25.2929  -10.2013    0.0000 C   0  0  0  0  0  0  0  0  0  0  0  0
   25.2929  -12.5049    0.0000 C   0  0  0  0  0  0  0  0  0  0  0  0
   25.9579  -11.3531    0.0000 C   0  0  0  0  0  0  0  0  0  0  0  0
   23.1197  -13.3481    0.0000 C   0  0  0  0  0  0  0  0  0  0  0  0
   23.1197  -14.6781    0.0000 C   0  0  0  0  0  0  0  0  0  0  0  0
   21.9679  -12.6831    0.0000 C   0  0  0  0  0  0  0  0  0  0  0  0
   21.9679  -15.3431    0.0000 C   0  0  0  0  0  0  0  0  0  0  0  0
   20.8161  -13.3481    0.0000 C   0  0  0  0  0  0  0  0  0  0  0  0
   20.8161  -14.6781    0.0000 C   0  0  0  0  0  0  0  0  0  0  0  0
  1  2  1  0  0  0  0
  1  3  2  0  0  0  0
  2  4  2  0  0  0  0
  3  5  1  0  0  0  0
  4  6  1  0  0  0  0
  5  6  2  0  0  0  0
  4  7  1  0  0  0  0
  8  9  1  0  0  0  0
  8 10  2  0  0  0  0
  9 11  2  0  0  0  0
 10 12  1  0  0  0  0
 11 13  1  0  0  0  0
 12 13  2  0  0  0  0
  7  8  1  0  0  0  0
 14 15  1  0  0  0  0
 14 16  2  0  0  0  0
 15 17  2  0  0  0  0
 16 18  1  0  0  0  0
 17 19  1  0  0  0  0
 18 19  2  0  0  0  0
  7 14  1  0  0  0  0
 20 21  1  0  0  0  0
 20 22  2  0  0  0  0
 21 23  2  0  0  0  0
 22 24  1  0  0  0  0
 23 25  1  0  0  0  0
 24 25  2  0  0  0  0
  7 22  1  0  0  0  0
M  CHG  1   7  -1
M  END
$$$$

  ACD/LABS05232616332D

  1  0  0  0  0  0  0  0  0  0  2 V2000
   16.8093   -8.7972    0.0000 Na  0  3  0  0  0  0  0  0  0  0  0  0
M  CHG  1   1   1
M  END
$$$$
