
  ACD/LABS05232613322D

  4  3  0  0  0  0  0  0  0  0  1 V2000
   21.7607   -7.7717    0.0000 B   0  0  0  0  0  0  0  0  0  0  0  0
   22.2415   -8.9254    0.0000 O   0  0  0  0  0  0  0  0  0  0  0  0
   22.1934   -6.6500    0.0000 O   0  0  0  0  0  0  0  0  0  0  0  0
   20.2705   -7.8839    0.0000 O   0  0  0  0  0  0  0  0  0  0  0  0
  1  2  1  0  0  0  0
  1  3  1  0  0  0  0
  1  4  1  0  0  0  0
M  END
$$$$

  ACD/LABS05232613322D

  3  2  0  0  0  0  0  0  0  0  2 V2000
   15.6235   -6.9384    0.0000 C   0  0  0  0  0  0  0  0  0  0  0  0
   16.7772   -5.3841    0.0000 O   0  0  0  0  0  0  0  0  0  0  0  0
   16.5849   -8.5248    0.0000 O   0  5  0  0  0  0  0  0  0  0  0  0
  1  2  2  0  0  0  0
  1  3  1  0  0  0  0
M  CHG  1   3  -1
M  END
$$$$

  ACD/LABS05232613322D

  1  0  0  0  0  0  0  0  0  0  2 V2000
   13.5243   -6.3936    0.0000 Na  0  3  0  0  0  0  0  0  0  0  0  0
M  CHG  1   1   1
M  END
$$$$

  ACD/LABS05232613322D

  1  0  0  0  0  0  0  0  0  0  1 V2000
   10.5278   -5.4963    0.0000 O   0  0  0  0  0  0  0  0  0  0  0  0
M  END
$$$$

  ACD/LABS05232613322D

  1  0  0  0  0  0  0  0  0  0  1 V2000
   10.5439   -7.1628    0.0000 O   0  0  0  0  0  0  0  0  0  0  0  0
M  END
$$$$
