
  ACD/LABS06052617332D

  5  4  0  0  0  0  0  0  0  0  1 V2000
   20.6551   -6.3936    0.0000 C   0  0  0  0  0  0  0  0  0  0  0  0
   21.9851   -6.3936    0.0000 C   0  0  0  0  0  0  0  0  0  0  0  0
   20.6551   -5.0636    0.0000 C   0  0  0  0  0  0  0  0  0  0  0  0
   19.3251   -6.3936    0.0000 C   0  0  0  0  0  0  0  0  0  0  0  0
   20.6551   -7.7236    0.0000 C   0  0  0  0  0  0  0  0  0  0  0  0
  1  2  1  0  0  0  0
  1  3  1  0  0  0  0
  1  4  1  0  0  0  0
  1  5  1  0  0  0  0
M  END
$$$$
