
  ACD/LABS06052617392D

  5  4  0  0  0  0  0  0  0  0  2 V2000
   22.8824   -8.4487    0.0000 C   0  0  0  0  0  0  0  0  0  0  0  0
   21.7306   -7.7837    0.0000 C   0  0  0  0  0  0  0  0  0  0  0  0
   21.7306   -6.4537    0.0000 N   0  3  0  0  0  0  0  0  0  0  0  0
   22.8824   -5.7887    0.0000 O   0  0  0  0  0  0  0  0  0  0  0  0
   20.5788   -5.7887    0.0000 O   0  5  0  0  0  0  0  0  0  0  0  0
  1  2  1  0  0  0  0
  2  3  1  0  0  0  0
  3  4  2  0  0  0  0
  3  5  1  0  0  0  0
M  CHG  2   3   1   5  -1
M  END
$$$$
