
  ACD/LABS06052617532D

  9  8  0  0  0  0  0  0  0  0  1 V2000
   11.9697   -7.4552    0.0000 C   0  0  0  0  0  0  0  0  0  0  0  0
   13.1215   -6.7902    0.0000 C   0  0  0  0  0  0  0  0  0  0  0  0
   14.2733   -7.4552    0.0000 C   0  0  0  0  0  0  0  0  0  0  0  0
   15.4251   -6.7902    0.0000 C   0  0  0  0  0  0  0  0  0  0  0  0
   16.5769   -7.4552    0.0000 C   0  0  0  0  0  0  0  0  0  0  0  0
   17.7287   -6.7902    0.0000 C   0  0  0  0  0  0  0  0  0  0  0  0
   18.8806   -7.4552    0.0000 C   0  0  0  0  0  0  0  0  0  0  0  0
   20.0324   -6.7902    0.0000 C   0  0  0  0  0  0  0  0  0  0  0  0
   21.1842   -7.4552    0.0000 C   0  0  0  0  0  0  0  0  0  0  0  0
  1  2  1  0  0  0  0
  2  3  1  0  0  0  0
  3  4  1  0  0  0  0
  4  5  1  0  0  0  0
  5  6  1  0  0  0  0
  6  7  1  0  0  0  0
  7  8  1  0  0  0  0
  8  9  1  0  0  0  0
M  END
$$$$
