
  ACD/LABS06052619482D

 18 20  0  0  0  0  0  0  0  0  1 V2000
   21.0217   -8.8533    0.0000 C   0  0  0  0  0  0  0  0  0  0  0  0
   21.0217  -10.1833    0.0000 C   0  0  0  0  0  0  0  0  0  0  0  0
   19.8699   -8.1883    0.0000 C   0  0  0  0  0  0  0  0  0  0  0  0
   19.8699  -10.8483    0.0000 C   0  0  0  0  0  0  0  0  0  0  0  0
   18.7181   -8.8533    0.0000 C   0  0  0  0  0  0  0  0  0  0  0  0
   18.7181  -10.1833    0.0000 C   0  0  0  0  0  0  0  0  0  0  0  0
   19.8699   -6.8583    0.0000 C   0  0  0  0  0  0  0  0  0  0  0  0
   18.7181   -6.1933    0.0000 C   0  0  0  0  0  0  0  0  0  0  0  0
   21.0218   -6.1933    0.0000 C   0  0  0  0  0  0  0  0  0  0  0  0
   18.7182   -4.8632    0.0000 C   0  0  0  0  0  0  0  0  0  0  0  0
   21.0218   -4.8633    0.0000 C   0  0  0  0  0  0  0  0  0  0  0  0
   19.8700   -4.1983    0.0000 C   0  0  0  0  0  0  0  0  0  0  0  0
   22.1735   -8.1883    0.0000 C   0  0  0  0  0  0  0  0  0  0  0  0
   22.1735   -6.8583    0.0000 C   0  0  0  0  0  0  0  0  0  0  0  0
   23.3254   -8.8533    0.0000 C   0  0  0  0  0  0  0  0  0  0  0  0
   23.3255   -6.1933    0.0000 C   0  0  0  0  0  0  0  0  0  0  0  0
   24.4772   -8.1884    0.0000 C   0  0  0  0  0  0  0  0  0  0  0  0
   24.4772   -6.8584    0.0000 C   0  0  0  0  0  0  0  0  0  0  0  0
  1  2  1  0  0  0  0
  1  3  2  0  0  0  0
  2  4  2  0  0  0  0
  3  5  1  0  0  0  0
  4  6  1  0  0  0  0
  5  6  2  0  0  0  0
  7  8  1  0  0  0  0
  7  9  2  0  0  0  0
  8 10  2  0  0  0  0
  9 11  1  0  0  0  0
 10 12  1  0  0  0  0
 11 12  2  0  0  0  0
  3  7  1  0  0  0  0
 13 14  1  0  0  0  0
 13 15  2  0  0  0  0
 14 16  2  0  0  0  0
 15 17  1  0  0  0  0
 16 18  1  0  0  0  0
 17 18  2  0  0  0  0
  1 13  1  0  0  0  0
M  END
$$$$
