
  ACD/LABS06052620082D

 10 10  0  0  0  0  0  0  0  0  1 V2000
   25.3951   -5.7277    0.0000 C   0  0  0  0  0  0  0  0  0  0  0  0
   24.7301   -6.8795    0.0000 C   0  0  0  0  0  0  0  0  0  0  0  0
   24.7301   -4.5758    0.0000 C   0  0  0  0  0  0  0  0  0  0  0  0
   23.4001   -6.8795    0.0000 C   0  0  0  0  0  0  0  0  0  0  0  0
   23.4001   -4.5758    0.0000 C   0  0  0  0  0  0  0  0  0  0  0  0
   22.7351   -5.7277    0.0000 C   0  0  0  0  0  0  0  0  0  0  0  0
   25.3951   -3.4240    0.0000 C   0  0  0  0  0  0  0  0  0  0  0  0
   26.7251   -5.7277    0.0000 C   0  0  0  0  0  0  0  0  0  0  0  0
   27.3901   -4.5758    0.0000 O   0  0  0  0  0  0  0  0  0  0  0  0
   27.3901   -6.8795    0.0000 O   0  0  0  0  0  0  0  0  0  0  0  0
  1  2  1  0  0  0  0
  1  3  2  0  0  0  0
  2  4  2  0  0  0  0
  3  5  1  0  0  0  0
  4  6  1  0  0  0  0
  5  6  2  0  0  0  0
  3  7  1  0  0  0  0
  1  8  1  0  0  0  0
  8  9  1  0  0  0  0
  8 10  2  0  0  0  0
M  END
$$$$
