
  ACD/LABS06052620352D

  8  8  0  0  0  0  0  0  0  0  1 V2000
   22.1613   -8.2444    0.0000 C   0  0  0  0  0  0  0  0  0  0  0  0
   22.1613   -9.5744    0.0000 C   0  0  0  0  0  0  0  0  0  0  0  0
   21.0095   -7.5794    0.0000 C   0  0  0  0  0  0  0  0  0  0  0  0
   21.0095  -10.2394    0.0000 C   0  0  0  0  0  0  0  0  0  0  0  0
   19.8577   -8.2444    0.0000 C   0  0  0  0  0  0  0  0  0  0  0  0
   19.8577   -9.5744    0.0000 C   0  0  0  0  0  0  0  0  0  0  0  0
   21.0095   -6.2494    0.0000 C   0  0  0  0  0  0  0  0  0  0  0  0
   23.3131   -7.5794    0.0000 C   0  0  0  0  0  0  0  0  0  0  0  0
  1  2  1  0  0  0  0
  1  3  2  0  0  0  0
  2  4  2  0  0  0  0
  3  5  1  0  0  0  0
  4  6  1  0  0  0  0
  5  6  2  0  0  0  0
  3  7  1  0  0  0  0
  1  8  1  0  0  0  0
M  END
$$$$
