
  ACD/LABS06052619422D

 20 19  0  0  0  0  0  0  0  0  1 V2000
   10.4721   -6.6380    0.0000 C   0  0  0  0  0  0  0  0  0  0  0  0
   11.6239   -5.9730    0.0000 C   0  0  0  0  0  0  0  0  0  0  0  0
   12.7757   -6.6380    0.0000 C   0  0  0  0  0  0  0  0  0  0  0  0
   13.9275   -5.9730    0.0000 C   0  0  0  0  0  0  0  0  0  0  0  0
   15.0793   -6.6380    0.0000 C   0  0  0  0  0  0  0  0  0  0  0  0
   16.2311   -5.9730    0.0000 C   0  0  0  0  0  0  0  0  0  0  0  0
   17.3829   -6.6380    0.0000 C   0  0  0  0  0  0  0  0  0  0  0  0
   18.5348   -5.9730    0.0000 C   0  0  0  0  0  0  0  0  0  0  0  0
   19.6866   -6.6380    0.0000 C   0  0  0  0  0  0  0  0  0  0  0  0
   20.8384   -5.9730    0.0000 C   0  0  0  0  0  0  0  0  0  0  0  0
   21.9902   -6.6380    0.0000 C   0  0  0  0  0  0  0  0  0  0  0  0
   23.1420   -5.9730    0.0000 C   0  0  0  0  0  0  0  0  0  0  0  0
   24.2938   -6.6380    0.0000 C   0  0  0  0  0  0  0  0  0  0  0  0
   25.4456   -5.9730    0.0000 C   0  0  0  0  0  0  0  0  0  0  0  0
   26.5975   -6.6380    0.0000 C   0  0  0  0  0  0  0  0  0  0  0  0
   27.7493   -5.9730    0.0000 C   0  0  0  0  0  0  0  0  0  0  0  0
   28.9011   -6.6380    0.0000 C   0  0  0  0  0  0  0  0  0  0  0  0
   30.0529   -5.9730    0.0000 C   0  0  0  0  0  0  0  0  0  0  0  0
   30.0452   -4.6470    0.0000 O   0  0  0  0  0  0  0  0  0  0  0  0
   31.1989   -6.6500    0.0000 O   0  0  0  0  0  0  0  0  0  0  0  0
  1  2  1  0  0  0  0
  2  3  1  0  0  0  0
  3  4  1  0  0  0  0
  4  5  1  0  0  0  0
  5  6  1  0  0  0  0
  6  7  1  0  0  0  0
  7  8  1  0  0  0  0
  8  9  1  0  0  0  0
  9 10  1  0  0  0  0
 10 11  1  0  0  0  0
 11 12  1  0  0  0  0
 12 13  1  0  0  0  0
 13 14  1  0  0  0  0
 14 15  1  0  0  0  0
 15 16  1  0  0  0  0
 16 17  1  0  0  0  0
 17 18  1  0  0  0  0
 18 19  2  0  0  0  0
 18 20  1  0  0  0  0
M  END
$$$$
