
  ACD/LABS06052618272D

  3  3  0  0  0  0  0  0  0  0  1 V2000
   20.4147   -8.9645    0.0000 C   0  0  0  0  0  0  0  0  0  0  0  0
   19.0847   -8.9645    0.0000 C   0  0  0  0  0  0  0  0  0  0  0  0
   19.7497   -7.8127    0.0000 O   0  0  0  0  0  0  0  0  0  0  0  0
  1  2  1  0  0  0  0
  2  3  1  0  0  0  0
  3  1  1  0  0  0  0
M  END
$$$$
