
  ACD/LABS05242623132D

  8  8  0  0  0  0  0  0  0  0  1 V2000
   22.3607   -8.9236    0.0000 C   0  0  0  0  0  0  0  0  0  0  0  0
   21.2089   -8.2586    0.0000 C   0  0  0  0  0  0  0  0  0  0  0  0
   21.2089   -6.9286    0.0000 C   0  0  0  0  0  0  0  0  0  0  0  0
   22.3607   -6.2636    0.0000 C   0  0  0  0  0  0  0  0  0  0  0  0
   23.5125   -6.9286    0.0000 C   0  0  0  0  0  0  0  0  0  0  0  0
   20.0570   -6.2636    0.0000 O   0  0  0  0  0  0  0  0  0  0  0  0
   23.5125   -8.2586    0.0000 C   0  0  0  0  0  0  0  0  0  0  0  0
   24.6611   -8.9094    0.0000 O   0  0  0  0  0  0  0  0  0  0  0  0
  1  2  2  0  0  0  0
  2  3  1  0  0  0  0
  4  5  2  0  0  0  0
  3  4  1  0  0  0  0
  3  6  2  0  0  0  0
  1  7  1  0  0  0  0
  5  7  1  0  0  0  0
  7  8  2  0  0  0  0
M  END
$$$$
