
  ACD/LABS05262611012D

  8  8  0  0  0  0  0  0  0  0  1 V2000
   18.7303   -8.6931    0.0000 C   0  0  0  0  0  0  0  0  0  0  0  0
   18.7303  -10.0231    0.0000 C   0  0  0  0  0  0  0  0  0  0  0  0
   17.5784   -8.0281    0.0000 C   0  0  0  0  0  0  0  0  0  0  0  0
   17.5784  -10.6881    0.0000 C   0  0  0  0  0  0  0  0  0  0  0  0
   16.4266   -8.6931    0.0000 C   0  0  0  0  0  0  0  0  0  0  0  0
   16.4266  -10.0231    0.0000 C   0  0  0  0  0  0  0  0  0  0  0  0
   17.5784   -6.6981    0.0000 Cl  0  0  0  0  0  0  0  0  0  0  0  0
   17.5784  -12.0181    0.0000 Cl  0  0  0  0  0  0  0  0  0  0  0  0
  1  2  1  0  0  0  0
  1  3  2  0  0  0  0
  2  4  2  0  0  0  0
  3  5  1  0  0  0  0
  4  6  1  0  0  0  0
  5  6  2  0  0  0  0
  3  7  1  0  0  0  0
  4  8  1  0  0  0  0
M  END
$$$$
