
  ACD/LABS06012611362D

  8  8  0  0  0  0  0  0  0  0  1 V2000
   22.2556   -5.5363    0.0000 C   0  0  0  0  0  0  0  0  0  0  0  0
   22.2556   -6.8663    0.0000 C   0  0  0  0  0  0  0  0  0  0  0  0
   21.1037   -4.8713    0.0000 C   0  0  0  0  0  0  0  0  0  0  0  0
   21.1037   -7.5313    0.0000 C   0  0  0  0  0  0  0  0  0  0  0  0
   19.9519   -5.5363    0.0000 C   0  0  0  0  0  0  0  0  0  0  0  0
   19.9519   -6.8663    0.0000 C   0  0  0  0  0  0  0  0  0  0  0  0
   21.1037   -3.5413    0.0000 O   0  0  0  0  0  0  0  0  0  0  0  0
   21.1037   -8.8613    0.0000 O   0  0  0  0  0  0  0  0  0  0  0  0
  1  2  1  0  0  0  0
  1  3  2  0  0  0  0
  2  4  2  0  0  0  0
  3  5  1  0  0  0  0
  4  6  1  0  0  0  0
  5  6  2  0  0  0  0
  3  7  1  0  0  0  0
  4  8  1  0  0  0  0
M  END
$$$$
