
  ACD/LABS06052618052D

  9  9  0  0  0  0  0  0  0  0  1 V2000
   21.1820   -7.0426    0.0000 O   0  0  0  0  0  0  0  0  0  0  0  0
   21.1820   -8.3726    0.0000 C   0  0  0  0  0  0  0  0  0  0  0  0
   20.0301   -6.3776    0.0000 C   0  0  0  0  0  0  0  0  0  0  0  0
   20.0301   -9.0376    0.0000 O   0  0  0  0  0  0  0  0  0  0  0  0
   18.8783   -7.0426    0.0000 O   0  0  0  0  0  0  0  0  0  0  0  0
   18.8783   -8.3726    0.0000 C   0  0  0  0  0  0  0  0  0  0  0  0
   20.0301   -5.0476    0.0000 C   0  0  0  0  0  0  0  0  0  0  0  0
   22.3376   -9.0376    0.0000 C   0  0  0  0  0  0  0  0  0  0  0  0
   17.7227   -9.0536    0.0000 C   0  0  0  0  0  0  0  0  0  0  0  0
  1  2  1  0  0  0  0
  1  3  1  0  0  0  0
  2  4  1  0  0  0  0
  3  5  1  0  0  0  0
  4  6  1  0  0  0  0
  5  6  1  0  0  0  0
  3  7  1  0  0  0  0
  2  8  1  0  0  0  0
  6  9  1  0  0  0  0
M  END
$$$$
