
  ACD/LABS06052618072D

  7  6  0  0  0  0  0  0  0  0  1 V2000
   19.4653   -8.2364    0.0000 C   0  0  0  0  0  0  0  0  0  0  0  0
   20.7953   -8.2364    0.0000 C   0  0  0  0  0  0  0  0  0  0  0  0
   18.1353   -8.2364    0.0000 Cl  0  0  0  0  0  0  0  0  0  0  0  0
   19.4653   -9.5664    0.0000 Cl  0  0  0  0  0  0  0  0  0  0  0  0
   19.4653   -6.9064    0.0000 Cl  0  0  0  0  0  0  0  0  0  0  0  0
   21.4603   -7.0846    0.0000 Cl  0  0  0  0  0  0  0  0  0  0  0  0
   21.4603   -9.3882    0.0000 Cl  0  0  0  0  0  0  0  0  0  0  0  0
  1  2  1  0  0  0  0
  1  3  1  0  0  0  0
  1  4  1  0  0  0  0
  1  5  1  0  0  0  0
  2  6  1  0  0  0  0
  2  7  1  0  0  0  0
M  END
$$$$
