
  ACD/LABS06052618572D

  6  5  0  0  0  0  0  0  0  0  1 V2000
    8.9140   -5.7226    0.0000 C   0  0  0  0  0  0  0  0  0  0  0  0
   10.0659   -5.0576    0.0000 C   0  0  0  0  0  0  0  0  0  0  0  0
   11.2177   -5.7226    0.0000 C   0  0  0  0  0  0  0  0  0  0  0  0
   12.3695   -5.0576    0.0000 C   0  0  0  0  0  0  0  0  0  0  0  0
   13.5213   -5.7226    0.0000 C   0  0  0  0  0  0  0  0  0  0  0  0
   14.6731   -5.0576    0.0000 N   0  0  0  0  0  0  0  0  0  0  0  0
  1  2  1  0  0  0  0
  2  3  1  0  0  0  0
  3  4  1  0  0  0  0
  4  5  1  0  0  0  0
  5  6  1  0  0  0  0
M  END
$$$$
