
  ACD/LABS06052618592D

 20 24  0  0  0  0  0  0  0  0  1 V2000
   14.4679   -5.8408    0.0000 C   0  0  0  0  0  0  0  0  0  0  0  0
   14.4679   -7.1708    0.0000 C   0  0  0  0  0  0  0  0  0  0  0  0
   13.3160   -5.1758    0.0000 C   0  0  0  0  0  0  0  0  0  0  0  0
   13.3160   -7.8358    0.0000 C   0  0  0  0  0  0  0  0  0  0  0  0
   12.1642   -5.8408    0.0000 C   0  0  0  0  0  0  0  0  0  0  0  0
   12.1642   -7.1708    0.0000 C   0  0  0  0  0  0  0  0  0  0  0  0
   15.6196   -5.1759    0.0000 C   0  0  0  0  0  0  0  0  0  0  0  0
   16.7714   -5.8409    0.0000 C   0  0  0  0  0  0  0  0  0  0  0  0
   15.6196   -7.8358    0.0000 C   0  0  0  0  0  0  0  0  0  0  0  0
   16.7713   -7.1708    0.0000 C   0  0  0  0  0  0  0  0  0  0  0  0
   13.3159   -9.1658    0.0000 C   0  0  0  0  0  0  0  0  0  0  0  0
   14.4677   -9.8308    0.0000 C   0  0  0  0  0  0  0  0  0  0  0  0
   12.1641   -9.8308    0.0000 C   0  0  0  0  0  0  0  0  0  0  0  0
   14.4676  -11.1609    0.0000 C   0  0  0  0  0  0  0  0  0  0  0  0
   12.1640  -11.1608    0.0000 C   0  0  0  0  0  0  0  0  0  0  0  0
   13.3158  -11.8258    0.0000 C   0  0  0  0  0  0  0  0  0  0  0  0
   15.6195   -9.1658    0.0000 C   0  0  0  0  0  0  0  0  0  0  0  0
   16.7713   -9.8308    0.0000 C   0  0  0  0  0  0  0  0  0  0  0  0
   16.7712  -11.1609    0.0000 C   0  0  0  0  0  0  0  0  0  0  0  0
   15.6194  -11.8258    0.0000 C   0  0  0  0  0  0  0  0  0  0  0  0
  1  3  2  0  0  0  0
  2  4  2  0  0  0  0
  3  5  1  0  0  0  0
  4  6  1  0  0  0  0
  5  6  2  0  0  0  0
  1  7  1  0  0  0  0
  1  2  1  0  0  0  0
  7  8  2  0  0  0  0
  2  9  1  0  0  0  0
  8 10  1  0  0  0  0
  9 10  2  0  0  0  0
 11 12  1  0  0  0  0
 11 13  2  0  0  0  0
 12 14  2  0  0  0  0
 13 15  1  0  0  0  0
 14 16  1  0  0  0  0
 15 16  2  0  0  0  0
  4 11  1  0  0  0  0
 17 18  2  0  0  0  0
 17 12  1  0  0  0  0
 18 19  1  0  0  0  0
 19 20  2  0  0  0  0
 14 20  1  0  0  0  0
  9 17  1  0  0  0  0
M  END
$$$$
