
  ACD/LABS06052619013D

 14 16  0  0  0  0  0  0  0  0  1 V2000
   14.4679   -5.8408    0.0000 C   0  0  0  0  0  0  0  0  0  0  0  0
   14.4679   -7.1708    0.0000 C   0  0  0  0  0  0  0  0  0  0  0  0
   13.3160   -5.1758    0.0000 C   0  0  0  0  0  0  0  0  0  0  0  0
   13.3160   -7.8358    0.0000 C   0  0  0  0  0  0  0  0  0  0  0  0
   12.1642   -5.8408    0.0000 C   0  0  0  0  0  0  0  0  0  0  0  0
   12.1642   -7.1708    0.0000 C   0  0  0  0  0  0  0  0  0  0  0  0
   15.6196   -5.1759    0.0000 C   0  0  0  0  0  0  0  0  0  0  0  0
   16.7714   -5.8409    0.0000 C   0  0  0  0  0  0  0  0  0  0  0  0
   15.6196   -7.8358    0.0000 C   0  0  0  0  0  0  0  0  0  0  0  0
   16.7713   -7.1708    0.0000 C   0  0  0  0  0  0  0  0  0  0  0  0
   15.6196   -9.1656    0.0000 C   0  0  0  0  0  0  0  0  0  0  0  0
   16.7714   -9.8305    0.0000 C   0  0  0  0  0  0  0  0  0  0  0  0
   17.9230   -7.8357    0.0000 C   0  0  0  0  0  0  0  0  0  0  0  0
   17.9230   -9.1656    0.0000 C   0  0  0  0  0  0  0  0  0  0  0  0
  1  3  2  0  0  0  0
  2  4  2  0  0  0  0
  3  5  1  0  0  0  0
  4  6  1  0  0  0  0
  5  6  2  0  0  0  0
  1  7  1  0  0  0  0
  1  2  1  0  0  0  0
  7  8  2  0  0  0  0
  2  9  1  0  0  0  0
  8 10  1  0  0  0  0
  9 11  1  0  0  0  0
  9 10  2  0  0  0  0
 11 12  2  0  0  0  0
 10 13  1  0  0  0  0
 12 14  1  0  0  0  0
 13 14  2  0  0  0  0
M  END
$$$$
