
  ACD/LABS06052619012D

  7  7  0  0  0  0  0  0  0  0  1 V2000
   14.4679   -5.8408    0.0000 C   0  0  0  0  0  0  0  0  0  0  0  0
   14.4679   -7.1708    0.0000 C   0  0  0  0  0  0  0  0  0  0  0  0
   13.3160   -5.1758    0.0000 C   0  0  0  0  0  0  0  0  0  0  0  0
   13.3160   -7.8358    0.0000 C   0  0  0  0  0  0  0  0  0  0  0  0
   12.1642   -5.8408    0.0000 C   0  0  0  0  0  0  0  0  0  0  0  0
   12.1642   -7.1708    0.0000 C   0  0  0  0  0  0  0  0  0  0  0  0
   13.3160   -9.1658    0.0000 O   0  0  0  0  0  0  0  0  0  0  0  0
  1  3  2  0  0  0  0
  2  4  2  0  0  0  0
  3  5  1  0  0  0  0
  4  6  1  0  0  0  0
  5  6  2  0  0  0  0
  1  2  1  0  0  0  0
  4  7  1  0  0  0  0
M  END
$$$$
