
  ACD/LABS06052619022D

 12 12  0  0  0  0  0  0  0  0  1 V2000
   14.4707   -6.0852    0.0000 C   0  0  0  0  0  0  0  0  0  0  0  0
   14.4707   -7.4152    0.0000 C   0  0  0  0  0  0  0  0  0  0  0  0
   13.3189   -5.4202    0.0000 C   0  0  0  0  0  0  0  0  0  0  0  0
   13.3189   -8.0802    0.0000 C   0  0  0  0  0  0  0  0  0  0  0  0
   12.1671   -6.0852    0.0000 C   0  0  0  0  0  0  0  0  0  0  0  0
   12.1671   -7.4152    0.0000 C   0  0  0  0  0  0  0  0  0  0  0  0
   13.3189   -9.4102    0.0000 C   0  0  0  0  0  0  0  0  0  0  0  0
   12.1671  -10.0752    0.0000 O   0  0  0  0  0  0  0  0  0  0  0  0
   15.6225   -8.0802    0.0000 C   0  0  0  0  0  0  0  0  0  0  0  0
   16.7743   -7.4152    0.0000 O   0  0  0  0  0  0  0  0  0  0  0  0
   15.6225   -9.4102    0.0000 O   0  0  0  0  0  0  0  0  0  0  0  0
   14.4707  -10.0752    0.0000 O   0  0  0  0  0  0  0  0  0  0  0  0
  1  3  2  0  0  0  0
  2  4  2  0  0  0  0
  3  5  1  0  0  0  0
  4  6  1  0  0  0  0
  5  6  2  0  0  0  0
  1  2  1  0  0  0  0
  4  7  1  0  0  0  0
  7  8  1  0  0  0  0
  2  9  1  0  0  0  0
  9 10  1  0  0  0  0
  9 11  2  0  0  0  0
  7 12  2  0  0  0  0
M  END
$$$$
