
  ACD/LABS06052619042D

 11 12  0  0  0  0  0  0  0  0  1 V2000
   14.4779   -5.9380    0.0000 C   0  0  0  0  0  0  0  0  0  0  0  0
   14.4779   -7.2680    0.0000 C   0  0  0  0  0  0  0  0  0  0  0  0
   13.3260   -5.2730    0.0000 C   0  0  0  0  0  0  0  0  0  0  0  0
   13.3260   -7.9330    0.0000 C   0  0  0  0  0  0  0  0  0  0  0  0
   12.1742   -5.9380    0.0000 C   0  0  0  0  0  0  0  0  0  0  0  0
   12.1742   -7.2680    0.0000 C   0  0  0  0  0  0  0  0  0  0  0  0
   13.6026   -9.2339    0.0000 C   0  0  0  0  0  0  0  0  0  0  0  0
   12.7126  -10.2223    0.0000 O   0  0  0  0  0  0  0  0  0  0  0  0
   15.4662   -8.1579    0.0000 C   0  0  0  0  0  0  0  0  0  0  0  0
   16.7672   -7.8814    0.0000 O   0  0  0  0  0  0  0  0  0  0  0  0
   14.9253   -9.3730    0.0000 O   0  0  0  0  0  0  0  0  0  0  0  0
  1  3  2  0  0  0  0
  2  4  2  0  0  0  0
  3  5  1  0  0  0  0
  4  6  1  0  0  0  0
  5  6  2  0  0  0  0
  1  2  1  0  0  0  0
  4  7  1  0  0  0  0
  7  8  2  0  0  0  0
  2  9  1  0  0  0  0
  9 10  2  0  0  0  0
  7 11  1  0  0  0  0
  9 11  1  0  0  0  0
M  END
$$$$
