
  ACD/LABS06052619132D

  6  6  0  0  0  0  0  0  0  0  1 V2000
   17.2240   -8.4207    0.0000 C   0  0  0  0  0  0  0  0  0  0  0  0
   17.2240   -9.7507    0.0000 C   0  0  0  0  0  0  0  0  0  0  0  0
   16.0721   -7.7557    0.0000 N   0  0  0  0  0  0  0  0  0  0  0  0
   16.0721  -10.4157    0.0000 C   0  0  0  0  0  0  0  0  0  0  0  0
   14.9203   -8.4207    0.0000 C   0  0  0  0  0  0  0  0  0  0  0  0
   14.9203   -9.7507    0.0000 C   0  0  0  0  0  0  0  0  0  0  0  0
  1  2  1  0  0  0  0
  1  3  1  0  0  0  0
  2  4  1  0  0  0  0
  3  5  1  0  0  0  0
  4  6  1  0  0  0  0
  5  6  1  0  0  0  0
M  END
$$$$
