
  ACD/LABS06052619192D

  5  4  0  0  0  0  0  0  0  0  1 V2000
   13.9280   -7.5693    0.0000 C   0  0  0  0  0  0  0  0  0  0  0  0
   15.2580   -7.5693    0.0000 C   0  0  0  0  0  0  0  0  0  0  0  0
   15.9230   -8.7211    0.0000 C   0  0  0  0  0  0  0  0  0  0  0  0
   15.2580   -9.8729    0.0000 O   0  0  0  0  0  0  0  0  0  0  0  0
   17.2530   -8.7211    0.0000 O   0  0  0  0  0  0  0  0  0  0  0  0
  1  2  1  0  0  0  0
  2  3  1  0  0  0  0
  3  4  1  0  0  0  0
  3  5  2  0  0  0  0
M  END
$$$$
