
  ACD/LABS06052619212D

  3  2  0  0  0  0  0  0  0  0  1 V2000
   13.7737   -7.3911    0.0000 C   0  0  0  0  0  0  0  0  0  0  0  0
   14.9255   -8.0561    0.0000 C   0  0  0  0  0  0  0  0  0  0  0  0
   14.9255   -9.3861    0.0000 C   0  0  0  0  0  0  0  0  0  0  0  0
  1  2  1  0  0  0  0
  2  3  2  0  0  0  0
M  END
$$$$
