
  ACD/LABS06052619182D

  4  3  0  0  0  0  0  0  0  0  1 V2000
   14.4387   -7.3911    0.0000 C   0  0  0  0  0  0  0  0  0  0  0  0
   14.4387   -8.7211    0.0000 C   0  0  0  0  0  0  0  0  0  0  0  0
   15.5905   -9.3861    0.0000 C   0  0  0  0  0  0  0  0  0  0  0  0
   16.7423  -10.0511    0.0000 N   0  0  0  0  0  0  0  0  0  0  0  0
  1  2  1  0  0  0  0
  2  3  1  0  0  0  0
  3  4  3  0  0  0  0
M  END
$$$$
