
  ACD/LABS06052619242D

  9  9  0  0  0  0  0  0  0  0  1 V2000
   21.4544   -8.6450    0.0000 C   0  0  0  0  0  0  0  0  0  0  0  0
   21.4544   -9.9750    0.0000 C   0  0  0  0  0  0  0  0  0  0  0  0
   20.3025   -7.9800    0.0000 C   0  0  0  0  0  0  0  0  0  0  0  0
   20.3025  -10.6400    0.0000 C   0  0  0  0  0  0  0  0  0  0  0  0
   19.1507   -8.6450    0.0000 C   0  0  0  0  0  0  0  0  0  0  0  0
   19.1507   -9.9750    0.0000 C   0  0  0  0  0  0  0  0  0  0  0  0
   20.3025   -6.6500    0.0000 C   0  0  0  0  0  0  0  0  0  0  0  0
   21.4563   -5.9770    0.0000 C   0  0  0  0  0  0  0  0  0  0  0  0
   21.4563   -4.6470    0.0000 C   0  0  0  0  0  0  0  0  0  0  0  0
  1  2  1  0  0  0  0
  1  3  2  0  0  0  0
  2  4  2  0  0  0  0
  3  5  1  0  0  0  0
  4  6  1  0  0  0  0
  5  6  2  0  0  0  0
  3  7  1  0  0  0  0
  7  8  1  0  0  0  0
  8  9  1  0  0  0  0
M  END
$$$$
