
  ACD/LABS06052619152D

  3  2  0  0  0  0  0  0  0  0  1 V2000
   14.0951   -7.9640    0.0000 C   0  0  0  0  0  0  0  0  0  0  0  0
   15.2469   -8.6290    0.0000 C   0  0  0  0  0  0  0  0  0  0  0  0
   15.2469   -9.9590    0.0000 C   0  0  0  0  0  0  0  0  0  0  0  0
  1  2  1  0  0  0  0
  2  3  1  0  0  0  0
M  END
$$$$
