
  ACD/LABS06052619232D

  7  6  0  0  0  0  0  0  0  0  1 V2000
   13.2083   -7.2798    0.0000 C   0  0  0  0  0  0  0  0  0  0  0  0
   14.5383   -7.2798    0.0000 C   0  0  0  0  0  0  0  0  0  0  0  0
   15.2033   -8.4316    0.0000 C   0  0  0  0  0  0  0  0  0  0  0  0
   16.5333   -8.4316    0.0000 O   0  0  0  0  0  0  0  0  0  0  0  0
   17.1983   -9.5835    0.0000 C   0  0  0  0  0  0  0  0  0  0  0  0
   18.5283   -9.5835    0.0000 O   0  0  0  0  0  0  0  0  0  0  0  0
   16.5333  -10.7353    0.0000 C   0  0  0  0  0  0  0  0  0  0  0  0
  1  2  1  0  0  0  0
  2  3  1  0  0  0  0
  3  4  1  0  0  0  0
  4  5  1  0  0  0  0
  5  6  2  0  0  0  0
  5  7  1  0  0  0  0
M  END
$$$$
