
  ACD/LABS06052619272D

  6  6  0  0  0  0  0  0  0  0  1 V2000
   23.2331   -5.6004    0.0000 C   0  0  0  0  0  0  0  0  0  0  0  0
   23.2331   -6.9304    0.0000 C   0  0  0  0  0  0  0  0  0  0  0  0
   22.0812   -4.9354    0.0000 N   0  0  0  0  0  0  0  0  0  0  0  0
   22.0812   -7.5954    0.0000 N   0  0  0  0  0  0  0  0  0  0  0  0
   20.9294   -5.6004    0.0000 C   0  0  0  0  0  0  0  0  0  0  0  0
   20.9294   -6.9304    0.0000 C   0  0  0  0  0  0  0  0  0  0  0  0
  1  2  1  0  0  0  0
  1  3  2  0  0  0  0
  2  4  2  0  0  0  0
  3  5  1  0  0  0  0
  4  6  1  0  0  0  0
  5  6  2  0  0  0  0
M  END
$$$$
