
  ACD/LABS06052619302D

 16 19  0  0  0  0  0  0  0  0  1 V2000
   23.2331   -5.6004    0.0000 C   0  0  0  0  0  0  0  0  0  0  0  0
   23.2331   -6.9304    0.0000 C   0  0  0  0  0  0  0  0  0  0  0  0
   22.0812   -4.9354    0.0000 C   0  0  0  0  0  0  0  0  0  0  0  0
   22.0812   -7.5954    0.0000 C   0  0  0  0  0  0  0  0  0  0  0  0
   20.9294   -5.6004    0.0000 C   0  0  0  0  0  0  0  0  0  0  0  0
   20.9294   -6.9304    0.0000 C   0  0  0  0  0  0  0  0  0  0  0  0
   24.3848   -7.5955    0.0000 C   0  0  0  0  0  0  0  0  0  0  0  0
   24.3847   -8.9256    0.0000 C   0  0  0  0  0  0  0  0  0  0  0  0
   22.0811   -8.9254    0.0000 C   0  0  0  0  0  0  0  0  0  0  0  0
   23.2328   -9.5905    0.0000 C   0  0  0  0  0  0  0  0  0  0  0  0
   20.9292   -9.5902    0.0000 C   0  0  0  0  0  0  0  0  0  0  0  0
   19.7777   -7.5953    0.0000 C   0  0  0  0  0  0  0  0  0  0  0  0
   19.7776   -8.9252    0.0000 C   0  0  0  0  0  0  0  0  0  0  0  0
   23.2324  -10.9204    0.0000 C   0  0  0  0  0  0  0  0  0  0  0  0
   20.9290  -10.9200    0.0000 C   0  0  0  0  0  0  0  0  0  0  0  0
   22.0806  -11.5851    0.0000 C   0  0  0  0  0  0  0  0  0  0  0  0
  1  2  1  0  0  0  0
  1  3  2  0  0  0  0
  3  5  1  0  0  0  0
  5  6  2  0  0  0  0
  2  7  1  0  0  0  0
  2  4  2  0  0  0  0
  7  8  2  0  0  0  0
  8 10  1  0  0  0  0
  9 10  2  0  0  0  0
  4  9  1  0  0  0  0
  4  6  1  0  0  0  0
  6 12  1  0  0  0  0
 11 13  1  0  0  0  0
 12 13  2  0  0  0  0
  9 11  1  0  0  0  0
 10 14  1  0  0  0  0
 11 15  2  0  0  0  0
 14 16  2  0  0  0  0
 15 16  1  0  0  0  0
M  END
$$$$
