
  ACD/LABS06052619322D

  6  6  0  0  0  0  0  0  0  0  1 V2000
   24.3708   -6.2254    0.0000 N   0  0  0  0  0  0  0  0  0  0  0  0
   24.3708   -7.5554    0.0000 C   0  0  0  0  0  0  0  0  0  0  0  0
   23.2189   -5.5604    0.0000 C   0  0  0  0  0  0  0  0  0  0  0  0
   23.2189   -8.2204    0.0000 N   0  0  0  0  0  0  0  0  0  0  0  0
   22.0671   -6.2254    0.0000 C   0  0  0  0  0  0  0  0  0  0  0  0
   22.0671   -7.5554    0.0000 C   0  0  0  0  0  0  0  0  0  0  0  0
  1  2  1  0  0  0  0
  1  3  2  0  0  0  0
  2  4  2  0  0  0  0
  3  5  1  0  0  0  0
  4  6  1  0  0  0  0
  5  6  2  0  0  0  0
M  END
$$$$
