
  ACD/LABS06052619342D

  5  5  0  0  0  0  0  0  0  0  1 V2000
   18.4093   -6.8559    0.0000 C   0  0  0  0  0  0  0  0  0  0  0  0
   19.4860   -6.0751    0.0000 N   0  0  0  0  0  0  0  0  0  0  0  0
   18.8192   -8.1212    0.0000 C   0  0  0  0  0  0  0  0  0  0  0  0
   20.5613   -6.8578    0.0000 C   0  0  0  0  0  0  0  0  0  0  0  0
   20.1494   -8.1223    0.0000 C   0  0  0  0  0  0  0  0  0  0  0  0
  1  2  1  0  0  0  0
  1  3  2  0  0  0  0
  2  4  1  0  0  0  0
  3  5  1  0  0  0  0
  4  5  2  0  0  0  0
M  END
$$$$
