
  ACD/LABS06052619362D

 10 11  0  0  0  0  0  0  0  0  1 V2000
   23.8099   -3.5974    0.0000 C   0  0  0  0  0  0  0  0  0  0  0  0
   23.8099   -4.9274    0.0000 C   0  0  0  0  0  0  0  0  0  0  0  0
   22.6580   -2.9324    0.0000 C   0  0  0  0  0  0  0  0  0  0  0  0
   22.6580   -5.5924    0.0000 C   0  0  0  0  0  0  0  0  0  0  0  0
   21.5062   -3.5974    0.0000 C   0  0  0  0  0  0  0  0  0  0  0  0
   21.5062   -4.9274    0.0000 C   0  0  0  0  0  0  0  0  0  0  0  0
   24.9617   -2.9325    0.0000 C   0  0  0  0  0  0  0  0  0  0  0  0
   26.1135   -3.5976    0.0000 C   0  0  0  0  0  0  0  0  0  0  0  0
   24.9616   -5.5924    0.0000 N   0  0  0  0  0  0  0  0  0  0  0  0
   26.1134   -4.9275    0.0000 C   0  0  0  0  0  0  0  0  0  0  0  0
  1  3  2  0  0  0  0
  2  4  2  0  0  0  0
  3  5  1  0  0  0  0
  4  6  1  0  0  0  0
  5  6  2  0  0  0  0
  1  7  1  0  0  0  0
  1  2  1  0  0  0  0
  7  8  2  0  0  0  0
  2  9  1  0  0  0  0
  8 10  1  0  0  0  0
  9 10  2  0  0  0  0
M  END
$$$$
