
  ACD/LABS05232612282D

  5  4  0  0  0  0  0  0  0  0  2 V2000
   21.3281   -7.4993    0.0000 B   0  5  0  0  0  0  0  0  0  0  0  0
   22.5459   -6.5859    0.0000 H   0  0  0  0  0  0  0  0  0  0  0  0
   20.1583   -6.3616    0.0000 H   0  0  0  0  0  0  0  0  0  0  0  0
   22.3216   -8.4767    0.0000 H   0  0  0  0  0  0  0  0  0  0  0  0
   20.1904   -8.1723    0.0000 H   0  0  0  0  0  0  0  0  0  0  0  0
  1  2  1  0  0  0  0
  1  3  1  0  0  0  0
  1  4  1  0  0  0  0
  1  5  1  0  0  0  0
M  CHG  1   1  -1
M  END
$$$$

  ACD/LABS05232612282D

  1  0  0  0  0  0  0  0  0  0  2 V2000
   18.2354   -7.3871    0.0000 Rb  0  3  0  0  0  0  0  0  0  0  0  0
M  CHG  1   1   1
M  END
$$$$
