
  ACD/LABS06052619392D

 12 13  0  0  0  0  0  0  0  0  1 V2000
   19.4532   -8.3005    0.0000 C   0  0  0  0  0  0  0  0  0  0  0  0
   19.4532   -9.6305    0.0000 C   0  0  0  0  0  0  0  0  0  0  0  0
   18.3014   -7.6355    0.0000 C   0  0  0  0  0  0  0  0  0  0  0  0
   18.3014  -10.2955    0.0000 C   0  0  0  0  0  0  0  0  0  0  0  0
   17.1496   -8.3005    0.0000 C   0  0  0  0  0  0  0  0  0  0  0  0
   17.1496   -9.6305    0.0000 C   0  0  0  0  0  0  0  0  0  0  0  0
   20.7181   -7.8895    0.0000 O   0  0  0  0  0  0  0  0  0  0  0  0
   21.4998   -8.9655    0.0000 C   0  0  0  0  0  0  0  0  0  0  0  0
   20.7183  -10.0415    0.0000 O   0  0  0  0  0  0  0  0  0  0  0  0
   15.9921   -7.6435    0.0000 C   0  0  0  0  0  0  0  0  0  0  0  0
   14.8383   -8.3165    0.0000 C   0  0  0  0  0  0  0  0  0  0  0  0
   13.6846   -7.6595    0.0000 C   0  0  0  0  0  0  0  0  0  0  0  0
  1  3  2  0  0  0  0
  2  4  2  0  0  0  0
  3  5  1  0  0  0  0
  4  6  1  0  0  0  0
  5  6  2  0  0  0  0
  1  7  1  0  0  0  0
  1  2  1  0  0  0  0
  7  8  1  0  0  0  0
  2  9  1  0  0  0  0
  8  9  1  0  0  0  0
  5 10  1  0  0  0  0
 10 11  1  0  0  0  0
 11 12  2  0  0  0  0
M  END
$$$$
