
  ACD/LABS06052619402D

  9  9  0  0  0  0  0  0  0  0  1 V2000
   19.5098   -8.1643    0.0000 C   0  0  0  0  0  0  0  0  0  0  0  0
   19.5098   -9.4943    0.0000 C   0  0  0  0  0  0  0  0  0  0  0  0
   18.3579   -7.4993    0.0000 C   0  0  0  0  0  0  0  0  0  0  0  0
   18.3579  -10.1593    0.0000 C   0  0  0  0  0  0  0  0  0  0  0  0
   17.2061   -8.1643    0.0000 C   0  0  0  0  0  0  0  0  0  0  0  0
   17.2061   -9.4943    0.0000 C   0  0  0  0  0  0  0  0  0  0  0  0
   20.6616   -7.4993    0.0000 O   0  0  0  0  0  0  0  0  0  0  0  0
   18.3579   -6.1693    0.0000 C   0  0  0  0  0  0  0  0  0  0  0  0
   17.2061   -5.5043    0.0000 O   0  0  0  0  0  0  0  0  0  0  0  0
  1  3  2  0  0  0  0
  2  4  2  0  0  0  0
  3  5  1  0  0  0  0
  4  6  1  0  0  0  0
  5  6  2  0  0  0  0
  1  7  1  0  0  0  0
  1  2  1  0  0  0  0
  3  8  1  0  0  0  0
  8  9  2  0  0  0  0
M  END
$$$$
