
  ACD/LABS06052619432D

  8  8  0  0  0  0  0  0  0  0  1 V2000
   22.0473   -8.6771    0.0000 C   0  0  0  0  0  0  0  0  0  0  0  0
   22.0473  -10.0071    0.0000 C   0  0  0  0  0  0  0  0  0  0  0  0
   20.8954   -8.0121    0.0000 C   0  0  0  0  0  0  0  0  0  0  0  0
   20.8954  -10.6721    0.0000 C   0  0  0  0  0  0  0  0  0  0  0  0
   19.7436   -8.6771    0.0000 C   0  0  0  0  0  0  0  0  0  0  0  0
   19.7436  -10.0071    0.0000 C   0  0  0  0  0  0  0  0  0  0  0  0
   20.8954   -6.6821    0.0000 C   0  0  0  0  0  0  0  0  0  0  0  0
   22.0492   -6.0251    0.0000 C   0  0  0  0  0  0  0  0  0  0  0  0
  1  2  1  0  0  0  0
  1  3  2  0  0  0  0
  2  4  2  0  0  0  0
  3  5  1  0  0  0  0
  4  6  1  0  0  0  0
  5  6  2  0  0  0  0
  3  7  1  0  0  0  0
  7  8  2  0  0  0  0
M  END
$$$$
