
  ACD/LABS06052619452D

  8  7  0  0  0  0  0  0  0  0  1 V2000
   19.0716   -7.7997    0.0000 C   0  0  0  0  0  0  0  0  0  0  0  0
   20.2234   -7.1347    0.0000 C   0  0  0  0  0  0  0  0  0  0  0  0
   21.3752   -7.7997    0.0000 C   0  0  0  0  0  0  0  0  0  0  0  0
   22.5270   -7.1347    0.0000 C   0  0  0  0  0  0  0  0  0  0  0  0
   22.5270   -5.8047    0.0000 O   0  0  0  0  0  0  0  0  0  0  0  0
   23.6788   -7.7997    0.0000 O   0  0  0  0  0  0  0  0  0  0  0  0
   19.0716   -9.1297    0.0000 O   0  0  0  0  0  0  0  0  0  0  0  0
   17.9197   -7.1347    0.0000 O   0  0  0  0  0  0  0  0  0  0  0  0
  1  2  1  0  0  0  0
  2  3  1  0  0  0  0
  3  4  1  0  0  0  0
  4  5  2  0  0  0  0
  4  6  1  0  0  0  0
  1  7  2  0  0  0  0
  1  8  1  0  0  0  0
M  END
$$$$
