
  ACD/LABS06052619462D

  7  7  0  0  0  0  0  0  0  0  1 V2000
   19.1962   -7.6298    0.0000 C   0  0  0  0  0  0  0  0  0  0  0  0
   19.7372   -6.4148    0.0000 C   0  0  0  0  0  0  0  0  0  0  0  0
   21.0599   -6.5538    0.0000 C   0  0  0  0  0  0  0  0  0  0  0  0
   21.3364   -7.8547    0.0000 C   0  0  0  0  0  0  0  0  0  0  0  0
   22.5515   -8.3957    0.0000 O   0  0  0  0  0  0  0  0  0  0  0  0
   17.8953   -7.9063    0.0000 O   0  0  0  0  0  0  0  0  0  0  0  0
   20.1846   -8.5197    0.0000 O   0  0  0  0  0  0  0  0  0  0  0  0
  1  2  1  0  0  0  0
  2  3  1  0  0  0  0
  3  4  1  0  0  0  0
  4  5  2  0  0  0  0
  1  6  2  0  0  0  0
  1  7  1  0  0  0  0
  4  7  1  0  0  0  0
M  END
$$$$
