
  ACD/LABS06052619472D

 12 12  0  0  0  0  0  0  0  0  1 V2000
   21.0217   -8.8533    0.0000 C   0  0  0  0  0  0  0  0  0  0  0  0
   21.0217  -10.1833    0.0000 C   0  0  0  0  0  0  0  0  0  0  0  0
   19.8699   -8.1883    0.0000 C   0  0  0  0  0  0  0  0  0  0  0  0
   19.8699  -10.8483    0.0000 C   0  0  0  0  0  0  0  0  0  0  0  0
   18.7181   -8.8533    0.0000 C   0  0  0  0  0  0  0  0  0  0  0  0
   18.7181  -10.1833    0.0000 C   0  0  0  0  0  0  0  0  0  0  0  0
   19.8699   -6.8583    0.0000 C   0  0  0  0  0  0  0  0  0  0  0  0
   19.8699  -12.1783    0.0000 C   0  0  0  0  0  0  0  0  0  0  0  0
   21.0217   -6.1933    0.0000 O   0  0  0  0  0  0  0  0  0  0  0  0
   18.7181   -6.1933    0.0000 O   0  0  0  0  0  0  0  0  0  0  0  0
   21.0217  -12.8433    0.0000 O   0  0  0  0  0  0  0  0  0  0  0  0
   18.7181  -12.8433    0.0000 O   0  0  0  0  0  0  0  0  0  0  0  0
  1  2  1  0  0  0  0
  1  3  2  0  0  0  0
  2  4  2  0  0  0  0
  3  5  1  0  0  0  0
  4  6  1  0  0  0  0
  5  6  2  0  0  0  0
  3  7  1  0  0  0  0
  4  8  1  0  0  0  0
  7  9  2  0  0  0  0
  7 10  1  0  0  0  0
  8 11  2  0  0  0  0
  8 12  1  0  0  0  0
M  END
$$$$
