
  ACD/LABS05252611302D

 10 10  0  0  0  0  0  0  0  0  1 V2000
   22.9401   -8.1402    0.0000 C   0  0  0  0  0  0  0  0  0  0  0  0
   22.9401   -6.8102    0.0000 C   0  0  0  0  0  0  0  0  0  0  0  0
   24.2701   -6.8102    0.0000 C   0  0  0  0  0  0  0  0  0  0  0  0
   24.9351   -5.6584    0.0000 C   0  0  0  0  0  0  0  0  0  0  0  0
   24.9351   -7.9621    0.0000 C   0  0  0  0  0  0  0  0  0  0  0  0
   26.2652   -5.6584    0.0000 C   0  0  0  0  0  0  0  0  0  0  0  0
   26.2652   -7.9621    0.0000 C   0  0  0  0  0  0  0  0  0  0  0  0
   26.9301   -6.8102    0.0000 C   0  0  0  0  0  0  0  0  0  0  0  0
   22.9402   -5.4802    0.0000 C   0  0  0  0  0  0  0  0  0  0  0  0
   21.6101   -6.8102    0.0000 C   0  0  0  0  0  0  0  0  0  0  0  0
  1  2  1  0  0  0  0
  3  4  1  0  0  0  0
  3  5  2  0  0  0  0
  4  6  2  0  0  0  0
  5  7  1  0  0  0  0
  6  8  1  0  0  0  0
  7  8  2  0  0  0  0
  2  3  1  0  0  0  0
  2  9  1  0  0  0  0
  2 10  1  0  0  0  0
M  END
$$$$
