
  ACD/LABS06052620012D

  5  4  0  0  0  0  0  0  0  0  1 V2000
   21.4683   -7.0105    0.0000 C   0  0  0  0  0  0  0  0  0  0  0  0
   20.8033   -5.8587    0.0000 I   0  0  0  0  0  0  0  0  0  0  0  0
   20.3165   -7.6755    0.0000 I   0  0  0  0  0  0  0  0  0  0  0  0
   22.6201   -6.3455    0.0000 I   0  0  0  0  0  0  0  0  0  0  0  0
   22.1333   -8.1624    0.0000 I   0  0  0  0  0  0  0  0  0  0  0  0
  1  2  1  0  0  0  0
  1  3  1  0  0  0  0
  1  4  1  0  0  0  0
  1  5  1  0  0  0  0
M  END
$$$$
