
  ACD/LABS06052620042D

 13 12  0  0  0  0  0  0  0  0  2 V2000
   19.2530   -6.9705    0.0000 C   0  0  0  0  0  0  0  0  0  0  0  0
   19.2530   -5.6405    0.0000 N   0  3  0  0  0  0  0  0  0  0  0  0
   20.5830   -6.9705    0.0000 N   0  3  0  0  0  0  0  0  0  0  0  0
   17.9230   -6.9705    0.0000 N   0  3  0  0  0  0  0  0  0  0  0  0
   19.2530   -8.3005    0.0000 N   0  3  0  0  0  0  0  0  0  0  0  0
   18.1011   -4.9755    0.0000 O   0  5  0  0  0  0  0  0  0  0  0  0
   20.4048   -4.9755    0.0000 O   0  0  0  0  0  0  0  0  0  0  0  0
   21.2480   -8.1223    0.0000 O   0  0  0  0  0  0  0  0  0  0  0  0
   21.2480   -5.8187    0.0000 O   0  5  0  0  0  0  0  0  0  0  0  0
   17.2580   -8.1223    0.0000 O   0  5  0  0  0  0  0  0  0  0  0  0
   17.2580   -5.8187    0.0000 O   0  0  0  0  0  0  0  0  0  0  0  0
   18.1011   -8.9655    0.0000 O   0  0  0  0  0  0  0  0  0  0  0  0
   20.4048   -8.9655    0.0000 O   0  5  0  0  0  0  0  0  0  0  0  0
  1  2  1  0  0  0  0
  1  3  1  0  0  0  0
  1  4  1  0  0  0  0
  1  5  1  0  0  0  0
  2  6  1  0  0  0  0
  2  7  2  0  0  0  0
  3  8  2  0  0  0  0
  3  9  1  0  0  0  0
  4 10  1  0  0  0  0
  4 11  2  0  0  0  0
  5 12  2  0  0  0  0
  5 13  1  0  0  0  0
M  CHG  8   2   1   3   1   4   1   5   1   6  -1   9  -1  10  -1  13  -1
M  END
$$$$
