
  ACD/LABS06052619592D

 16 15  0  0  0  0  0  0  0  0  1 V2000
   12.5025   -7.3430    0.0000 C   0  0  0  0  0  0  0  0  0  0  0  0
   13.6543   -6.6780    0.0000 C   0  0  0  0  0  0  0  0  0  0  0  0
   14.8061   -7.3430    0.0000 C   0  0  0  0  0  0  0  0  0  0  0  0
   15.9579   -6.6780    0.0000 C   0  0  0  0  0  0  0  0  0  0  0  0
   17.1097   -7.3430    0.0000 C   0  0  0  0  0  0  0  0  0  0  0  0
   18.2615   -6.6780    0.0000 C   0  0  0  0  0  0  0  0  0  0  0  0
   19.4134   -7.3430    0.0000 C   0  0  0  0  0  0  0  0  0  0  0  0
   20.5652   -6.6780    0.0000 C   0  0  0  0  0  0  0  0  0  0  0  0
   21.7170   -7.3430    0.0000 C   0  0  0  0  0  0  0  0  0  0  0  0
   22.8688   -6.6780    0.0000 C   0  0  0  0  0  0  0  0  0  0  0  0
   24.0206   -7.3430    0.0000 C   0  0  0  0  0  0  0  0  0  0  0  0
   25.1724   -6.6780    0.0000 C   0  0  0  0  0  0  0  0  0  0  0  0
   26.3242   -7.3430    0.0000 C   0  0  0  0  0  0  0  0  0  0  0  0
   27.4761   -6.6780    0.0000 C   0  0  0  0  0  0  0  0  0  0  0  0
   27.4761   -5.3480    0.0000 O   0  0  0  0  0  0  0  0  0  0  0  0
   28.6279   -7.3430    0.0000 O   0  0  0  0  0  0  0  0  0  0  0  0
  1  2  1  0  0  0  0
  2  3  1  0  0  0  0
  3  4  1  0  0  0  0
  4  5  1  0  0  0  0
  5  6  1  0  0  0  0
  6  7  1  0  0  0  0
  7  8  1  0  0  0  0
  8  9  1  0  0  0  0
  9 10  1  0  0  0  0
 10 11  1  0  0  0  0
 11 12  1  0  0  0  0
 12 13  1  0  0  0  0
 13 14  1  0  0  0  0
 14 15  2  0  0  0  0
 14 16  1  0  0  0  0
M  END
$$$$
