
  ACD/LABS06052620002D

  7  7  0  0  0  0  0  0  0  0  1 V2000
   21.1917   -7.9364    0.0000 C   0  0  0  0  0  0  0  0  0  0  0  0
   21.9735   -6.8604    0.0000 O   0  0  0  0  0  0  0  0  0  0  0  0
   21.9735   -9.0124    0.0000 C   0  0  0  0  0  0  0  0  0  0  0  0
   23.2384   -7.2714    0.0000 C   0  0  0  0  0  0  0  0  0  0  0  0
   23.2384   -8.6014    0.0000 C   0  0  0  0  0  0  0  0  0  0  0  0
   24.3144   -6.4897    0.0000 C   0  0  0  0  0  0  0  0  0  0  0  0
   24.1753   -5.1670    0.0000 O   0  0  0  0  0  0  0  0  0  0  0  0
  1  2  1  0  0  0  0
  1  3  1  0  0  0  0
  2  4  1  0  0  0  0
  3  5  1  0  0  0  0
  4  5  1  0  0  0  0
  4  6  1  0  0  0  0
  6  7  1  0  0  0  0
M  END
$$$$
