
  ACD/LABS06052619582D

 14 13  0  0  0  0  0  0  0  0  1 V2000
   12.6074   -7.2068    0.0000 C   0  0  0  0  0  0  0  0  0  0  0  0
   13.7592   -6.5418    0.0000 C   0  0  0  0  0  0  0  0  0  0  0  0
   14.9111   -7.2068    0.0000 C   0  0  0  0  0  0  0  0  0  0  0  0
   16.0629   -6.5418    0.0000 C   0  0  0  0  0  0  0  0  0  0  0  0
   17.2147   -7.2068    0.0000 C   0  0  0  0  0  0  0  0  0  0  0  0
   18.3665   -6.5418    0.0000 C   0  0  0  0  0  0  0  0  0  0  0  0
   19.5183   -7.2068    0.0000 C   0  0  0  0  0  0  0  0  0  0  0  0
   20.6701   -6.5418    0.0000 C   0  0  0  0  0  0  0  0  0  0  0  0
   21.8219   -7.2068    0.0000 C   0  0  0  0  0  0  0  0  0  0  0  0
   22.9738   -6.5418    0.0000 C   0  0  0  0  0  0  0  0  0  0  0  0
   24.1256   -7.2068    0.0000 C   0  0  0  0  0  0  0  0  0  0  0  0
   25.2774   -6.5418    0.0000 C   0  0  0  0  0  0  0  0  0  0  0  0
   26.4292   -7.2068    0.0000 C   0  0  0  0  0  0  0  0  0  0  0  0
   27.5810   -6.5418    0.0000 C   0  0  0  0  0  0  0  0  0  0  0  0
  1  2  1  0  0  0  0
  2  3  1  0  0  0  0
  3  4  1  0  0  0  0
  4  5  1  0  0  0  0
  5  6  1  0  0  0  0
  6  7  1  0  0  0  0
  7  8  1  0  0  0  0
  8  9  1  0  0  0  0
  9 10  1  0  0  0  0
 10 11  1  0  0  0  0
 11 12  1  0  0  0  0
 12 13  1  0  0  0  0
 13 14  1  0  0  0  0
M  END
$$$$
