
  ACD/LABS06052620062D

  5  5  0  0  0  0  0  0  0  0  1 V2000
   21.7423   -7.1443    0.0000 C   0  0  0  0  0  0  0  0  0  0  0  0
   22.8190   -6.3635    0.0000 S   0  0  0  0  0  0  0  0  0  0  0  0
   22.1522   -8.4096    0.0000 C   0  0  0  0  0  0  0  0  0  0  0  0
   23.8943   -7.1462    0.0000 C   0  0  0  0  0  0  0  0  0  0  0  0
   23.4824   -8.4107    0.0000 C   0  0  0  0  0  0  0  0  0  0  0  0
  1  2  1  0  0  0  0
  1  3  2  0  0  0  0
  2  4  1  0  0  0  0
  3  5  1  0  0  0  0
  4  5  2  0  0  0  0
M  END
$$$$
