
  ACD/LABS06052620072D

  7  7  0  0  0  0  0  0  0  0  1 V2000
   25.0598   -5.1517    0.0000 C   0  0  0  0  0  0  0  0  0  0  0  0
   25.0598   -6.4817    0.0000 C   0  0  0  0  0  0  0  0  0  0  0  0
   23.9079   -4.4867    0.0000 C   0  0  0  0  0  0  0  0  0  0  0  0
   23.9079   -7.1467    0.0000 C   0  0  0  0  0  0  0  0  0  0  0  0
   22.7561   -5.1517    0.0000 C   0  0  0  0  0  0  0  0  0  0  0  0
   22.7561   -6.4817    0.0000 C   0  0  0  0  0  0  0  0  0  0  0  0
   23.9080   -3.1567    0.0000 C   0  0  0  0  0  0  0  0  0  0  0  0
  1  2  1  0  0  0  0
  1  3  2  0  0  0  0
  2  4  2  0  0  0  0
  3  5  1  0  0  0  0
  4  6  1  0  0  0  0
  5  6  2  0  0  0  0
  3  7  1  0  0  0  0
M  END
$$$$
