
  ACD/LABS05242622542D

 14 15  0  0  0  0  0  0  0  0  1 V2000
   21.4103   -6.6481    0.0000 C   0  0  0  0  0  0  0  0  0  0  0  0
   21.4103   -7.9781    0.0000 C   0  0  0  0  0  0  0  0  0  0  0  0
   20.2585   -5.9831    0.0000 C   0  0  0  0  0  0  0  0  0  0  0  0
   20.2585   -8.6431    0.0000 C   0  0  0  0  0  0  0  0  0  0  0  0
   19.1067   -6.6481    0.0000 C   0  0  0  0  0  0  0  0  0  0  0  0
   19.1067   -7.9781    0.0000 C   0  0  0  0  0  0  0  0  0  0  0  0
   20.2585   -9.9731    0.0000 N   0  0  0  0  0  0  0  0  0  0  0  0
   21.4103  -10.6381    0.0000 N   0  0  0  0  0  0  0  0  0  0  0  0
   21.4103  -11.9681    0.0000 C   0  0  0  0  0  0  0  0  0  0  0  0
   22.5621  -12.6331    0.0000 C   0  0  0  0  0  0  0  0  0  0  0  0
   20.2585  -12.6331    0.0000 C   0  0  0  0  0  0  0  0  0  0  0  0
   22.5621  -13.9631    0.0000 C   0  0  0  0  0  0  0  0  0  0  0  0
   20.2585  -13.9631    0.0000 C   0  0  0  0  0  0  0  0  0  0  0  0
   21.4103  -14.6281    0.0000 C   0  0  0  0  0  0  0  0  0  0  0  0
  1  3  2  0  0  0  0
  2  4  2  0  0  0  0
  3  5  1  0  0  0  0
  4  6  1  0  0  0  0
  5  6  2  0  0  0  0
  1  2  1  0  0  0  0
  4  7  1  0  0  0  0
  7  8  2  0  0  0  0
  9 10  1  0  0  0  0
  9 11  2  0  0  0  0
 10 12  2  0  0  0  0
 11 13  1  0  0  0  0
 12 14  1  0  0  0  0
 13 14  2  0  0  0  0
  8  9  1  0  0  0  0
M  END
$$$$
