
  ACD/LABS05252611232D

  4  3  0  0  0  0  0  0  0  0  1 V2000
   21.6999   -7.7183    0.0000 C   0  0  0  0  0  0  0  0  0  0  0  0
   21.0350   -8.8700    0.0000 C   0  0  0  0  0  0  0  0  0  0  0  0
   19.7049   -8.8647    0.0000 C   0  0  0  0  0  0  0  0  0  0  0  0
   23.0299   -7.7237    0.0000 C   0  0  0  0  0  0  0  0  0  0  0  0
  1  2  2  0  0  0  0
  2  3  1  0  0  0  0
  1  4  1  0  0  0  0
M  END
$$$$
