
  ACD/LABS05262611132D

  4  3  0  0  0  0  0  0  0  0  1 V2000
   18.1573   -8.2670    0.0000 C   0  0  0  0  0  0  0  0  0  0  0  0
   17.4923   -9.4188    0.0000 Cl  0  0  0  0  0  0  0  0  0  0  0  0
   19.4873   -8.2670    0.0000 C   0  0  0  0  0  0  0  0  0  0  0  0
   20.1523   -7.1152    0.0000 Cl  0  0  0  0  0  0  0  0  0  0  0  0
  1  2  1  0  0  0  0
  1  3  2  0  0  0  0
  3  4  1  0  0  0  0
M  END
$$$$
