
  ACD/LABS06052620102D

  4  3  0  0  0  0  0  0  0  0  1 V2000
   16.8493   -6.4297    0.0000 C   0  0  0  0  0  0  0  0  0  0  0  0
   16.8493   -5.0356    0.0000 Br  0  0  0  0  0  0  0  0  0  0  0  0
   18.0567   -7.1267    0.0000 Br  0  0  0  0  0  0  0  0  0  0  0  0
   15.6420   -7.1267    0.0000 Br  0  0  0  0  0  0  0  0  0  0  0  0
  1  2  1  0  0  0  0
  1  3  1  0  0  0  0
  1  4  1  0  0  0  0
M  END
$$$$
