
  ACD/LABS06052620172D

  4  3  0  0  0  0  0  0  0  0  1 V2000
   19.9019   -7.2708    0.0000 C   0  0  0  0  0  0  0  0  0  0  0  0
   19.9019   -8.4085    0.0000 Cl  0  0  0  0  0  0  0  0  0  0  0  0
   18.9166   -6.7020    0.0000 Cl  0  0  0  0  0  0  0  0  0  0  0  0
   20.8872   -6.7020    0.0000 Cl  0  0  0  0  0  0  0  0  0  0  0  0
  1  2  1  0  0  0  0
  1  3  1  0  0  0  0
  1  4  1  0  0  0  0
M  END
$$$$
