
  ACD/LABS06052620152D

  5  4  0  0  0  0  0  0  0  0  1 V2000
   19.8398   -7.9279    0.0000 C   0  0  0  0  0  0  0  0  0  0  0  0
   20.9916   -7.2629    0.0000 C   0  0  0  0  0  0  0  0  0  0  0  0
   19.8398   -9.2579    0.0000 Cl  0  0  0  0  0  0  0  0  0  0  0  0
   18.6879   -7.2629    0.0000 Cl  0  0  0  0  0  0  0  0  0  0  0  0
   22.1434   -7.9279    0.0000 Cl  0  0  0  0  0  0  0  0  0  0  0  0
  1  2  2  0  0  0  0
  1  3  1  0  0  0  0
  1  4  1  0  0  0  0
  2  5  1  0  0  0  0
M  END
$$$$
