
  ACD/LABS06052620192D

  7  6  0  0  0  0  0  0  0  0  2 V2000
   19.2448   -7.8377    0.0000 C   0  0  0  0  0  0  0  0  0  0  0  0
   20.3826   -7.8377    0.0000 Cl  0  0  0  0  0  0  0  0  0  0  0  0
   19.2448   -8.9755    0.0000 Cl  0  0  0  0  0  0  0  0  0  0  0  0
   19.2448   -6.7000    0.0000 Cl  0  0  0  0  0  0  0  0  0  0  0  0
   18.1071   -7.8377    0.0000 N   0  3  0  0  0  0  0  0  0  0  0  0
   17.5383   -8.8230    0.0000 O   0  0  0  0  0  0  0  0  0  0  0  0
   17.5383   -6.8525    0.0000 O   0  5  0  0  0  0  0  0  0  0  0  0
  1  2  1  0  0  0  0
  1  3  1  0  0  0  0
  1  4  1  0  0  0  0
  1  5  1  0  0  0  0
  5  6  2  0  0  0  0
  5  7  1  0  0  0  0
M  CHG  2   5   1   7  -1
M  END
$$$$
