
  ACD/LABS06052620122D

  6  5  0  0  0  0  0  0  0  0  1 V2000
   19.8378   -8.0170    0.0000 C   0  0  0  0  0  0  0  0  0  0  0  0
   20.9897   -7.3520    0.0000 C   0  0  0  0  0  0  0  0  0  0  0  0
   20.9897   -6.0220    0.0000 O   0  0  0  0  0  0  0  0  0  0  0  0
   19.1728   -6.8652    0.0000 Cl  0  0  0  0  0  0  0  0  0  0  0  0
   20.5028   -9.1688    0.0000 Cl  0  0  0  0  0  0  0  0  0  0  0  0
   18.6860   -8.6820    0.0000 Cl  0  0  0  0  0  0  0  0  0  0  0  0
  1  2  1  0  0  0  0
  2  3  2  0  0  0  0
  1  4  1  0  0  0  0
  1  5  1  0  0  0  0
  1  6  1  0  0  0  0
M  END
$$$$
