
  ACD/LABS06052620162D

  5  4  0  0  0  0  0  0  0  0  1 V2000
   19.9019   -7.3471    0.0000 C   0  0  0  0  0  0  0  0  0  0  0  0
   19.3331   -8.3323    0.0000 Cl  0  0  0  0  0  0  0  0  0  0  0  0
   18.9166   -6.7782    0.0000 Cl  0  0  0  0  0  0  0  0  0  0  0  0
   20.8872   -7.9159    0.0000 Cl  0  0  0  0  0  0  0  0  0  0  0  0
   20.4708   -6.3618    0.0000 F   0  0  0  0  0  0  0  0  0  0  0  0
  1  2  1  0  0  0  0
  1  3  1  0  0  0  0
  1  4  1  0  0  0  0
  1  5  1  0  0  0  0
M  END
$$$$
