
  ACD/LABS06052620212D

 13 12  0  0  0  0  0  0  0  0  1 V2000
   10.1372   -4.7593    0.0000 C   0  0  0  0  0  0  0  0  0  0  0  0
   11.4672   -4.7593    0.0000 C   0  0  0  0  0  0  0  0  0  0  0  0
   12.1322   -5.9111    0.0000 C   0  0  0  0  0  0  0  0  0  0  0  0
   13.4622   -5.9111    0.0000 C   0  0  0  0  0  0  0  0  0  0  0  0
   14.1272   -7.0629    0.0000 C   0  0  0  0  0  0  0  0  0  0  0  0
   15.4572   -7.0629    0.0000 C   0  0  0  0  0  0  0  0  0  0  0  0
   16.1222   -8.2148    0.0000 C   0  0  0  0  0  0  0  0  0  0  0  0
   17.4522   -8.2148    0.0000 C   0  0  0  0  0  0  0  0  0  0  0  0
   18.1173   -9.3666    0.0000 C   0  0  0  0  0  0  0  0  0  0  0  0
   19.4473   -9.3666    0.0000 C   0  0  0  0  0  0  0  0  0  0  0  0
   20.1123  -10.5184    0.0000 C   0  0  0  0  0  0  0  0  0  0  0  0
   21.4423  -10.5184    0.0000 C   0  0  0  0  0  0  0  0  0  0  0  0
   22.1073  -11.6702    0.0000 C   0  0  0  0  0  0  0  0  0  0  0  0
  1  2  1  0  0  0  0
  2  3  1  0  0  0  0
  3  4  1  0  0  0  0
  4  5  1  0  0  0  0
  5  6  1  0  0  0  0
  6  7  1  0  0  0  0
  7  8  1  0  0  0  0
  8  9  1  0  0  0  0
  9 10  1  0  0  0  0
 10 11  1  0  0  0  0
 11 12  1  0  0  0  0
 12 13  1  0  0  0  0
M  END
$$$$
