
  ACD/LABS06052620222D

  7  6  0  0  0  0  0  0  0  0  1 V2000
   24.4127   -7.2349    0.0000 N   0  0  0  0  0  0  0  0  0  0  0  0
   25.0777   -6.0831    0.0000 C   0  0  0  0  0  0  0  0  0  0  0  0
   24.4127   -4.9313    0.0000 C   0  0  0  0  0  0  0  0  0  0  0  0
   25.0777   -8.3867    0.0000 C   0  0  0  0  0  0  0  0  0  0  0  0
   24.4127   -9.5385    0.0000 C   0  0  0  0  0  0  0  0  0  0  0  0
   23.0827   -7.2349    0.0000 C   0  0  0  0  0  0  0  0  0  0  0  0
   22.4177   -6.0831    0.0000 C   0  0  0  0  0  0  0  0  0  0  0  0
  1  2  1  0  0  0  0
  2  3  1  0  0  0  0
  1  4  1  0  0  0  0
  4  5  1  0  0  0  0
  1  6  1  0  0  0  0
  6  7  1  0  0  0  0
M  END
$$$$
