
  ACD/LABS06052620232D

  7  6  0  0  0  0  0  0  0  0  1 V2000
   19.8398   -8.0170    0.0000 C   0  0  0  0  0  0  0  0  0  0  0  0
   20.9916   -7.3520    0.0000 C   0  0  0  0  0  0  0  0  0  0  0  0
   20.9916   -6.0220    0.0000 O   0  0  0  0  0  0  0  0  0  0  0  0
   19.1748   -6.8652    0.0000 F   0  0  0  0  0  0  0  0  0  0  0  0
   20.5048   -9.1688    0.0000 F   0  0  0  0  0  0  0  0  0  0  0  0
   18.6879   -8.6820    0.0000 F   0  0  0  0  0  0  0  0  0  0  0  0
   22.1434   -8.0170    0.0000 O   0  0  0  0  0  0  0  0  0  0  0  0
  1  2  1  0  0  0  0
  2  3  2  0  0  0  0
  1  4  1  0  0  0  0
  1  5  1  0  0  0  0
  1  6  1  0  0  0  0
  2  7  1  0  0  0  0
M  END
$$$$
