
  ACD/LABS06052620242D

  4  3  0  0  0  0  0  0  0  0  1 V2000
   19.5964   -8.3495    0.0000 C   0  0  0  0  0  0  0  0  0  0  0  0
   19.5964   -7.0195    0.0000 I   0  0  0  0  0  0  0  0  0  0  0  0
   20.7482   -9.0145    0.0000 I   0  0  0  0  0  0  0  0  0  0  0  0
   18.4445   -9.0145    0.0000 I   0  0  0  0  0  0  0  0  0  0  0  0
  1  2  1  0  0  0  0
  1  3  1  0  0  0  0
  1  4  1  0  0  0  0
M  END
$$$$
