
  ACD/LABS06052620302D

 11 10  0  0  0  0  0  0  0  0  1 V2000
   12.3185   -5.9818    0.0000 C   0  0  0  0  0  0  0  0  0  0  0  0
   13.6485   -5.9818    0.0000 C   0  0  0  0  0  0  0  0  0  0  0  0
   14.3135   -7.1336    0.0000 C   0  0  0  0  0  0  0  0  0  0  0  0
   15.6435   -7.1336    0.0000 C   0  0  0  0  0  0  0  0  0  0  0  0
   16.3085   -8.2854    0.0000 C   0  0  0  0  0  0  0  0  0  0  0  0
   17.6385   -8.2854    0.0000 C   0  0  0  0  0  0  0  0  0  0  0  0
   18.3035   -9.4372    0.0000 C   0  0  0  0  0  0  0  0  0  0  0  0
   19.6335   -9.4372    0.0000 C   0  0  0  0  0  0  0  0  0  0  0  0
   20.2985  -10.5891    0.0000 C   0  0  0  0  0  0  0  0  0  0  0  0
   21.6285  -10.5891    0.0000 C   0  0  0  0  0  0  0  0  0  0  0  0
   22.2935  -11.7409    0.0000 C   0  0  0  0  0  0  0  0  0  0  0  0
  1  2  1  0  0  0  0
  2  3  1  0  0  0  0
  3  4  1  0  0  0  0
  4  5  1  0  0  0  0
  5  6  1  0  0  0  0
  6  7  1  0  0  0  0
  7  8  1  0  0  0  0
  8  9  1  0  0  0  0
  9 10  1  0  0  0  0
 10 11  1  0  0  0  0
M  END
$$$$
