
  ACD/LABS06052620312D

  4  3  0  0  0  0  0  0  0  0  1 V2000
   20.9595   -7.6235    0.0000 C   0  0  0  0  0  0  0  0  0  0  0  0
   20.9595   -6.2935    0.0000 O   0  0  0  0  0  0  0  0  0  0  0  0
   22.1113   -8.2885    0.0000 N   0  0  0  0  0  0  0  0  0  0  0  0
   19.8077   -8.2885    0.0000 N   0  0  0  0  0  0  0  0  0  0  0  0
  1  2  2  0  0  0  0
  1  3  1  0  0  0  0
  1  4  1  0  0  0  0
M  END
$$$$
