
  ACD/LABS06052620332D

  6  5  0  0  0  0  0  0  0  0  1 V2000
   20.9624   -7.6235    0.0000 C   0  0  0  0  0  0  0  0  0  0  0  0
   20.9624   -6.2935    0.0000 O   0  0  0  0  0  0  0  0  0  0  0  0
   22.1142   -8.2885    0.0000 O   0  0  0  0  0  0  0  0  0  0  0  0
   19.8106   -8.2885    0.0000 C   0  0  0  0  0  0  0  0  0  0  0  0
   23.2660   -7.6235    0.0000 C   0  0  0  0  0  0  0  0  0  0  0  0
   24.4178   -8.2885    0.0000 C   0  0  0  0  0  0  0  0  0  0  0  0
  1  2  2  0  0  0  0
  1  3  1  0  0  0  0
  1  4  1  0  0  0  0
  3  5  1  0  0  0  0
  5  6  2  0  0  0  0
M  END
$$$$
