
  ACD/LABS05232616312D

 27 26  0  0  0  0  0  0  0  0  1 V2000
   18.3015  -12.9808    0.0000 N   0  0  0  0  0  0  0  0  0  0  0  0
   19.1046  -14.3718    0.0000 C   0  0  0  0  0  0  0  0  0  0  0  0
   19.9309  -15.7780    0.0000 C   0  0  0  0  0  0  0  0  0  0  0  0
   20.6187  -13.8395    0.0000 C   0  0  0  0  0  0  0  0  0  0  0  0
   17.9023  -15.4325    0.0000 C   0  0  0  0  0  0  0  0  0  0  0  0
   19.0856  -11.5188    0.0000 B   0  0  0  0  0  0  0  0  0  0  0  0
   16.6404  -12.9556    0.0000 B   0  0  0  0  0  0  0  0  0  0  0  0
   16.0699  -11.4780    0.0000 N   0  0  0  0  0  0  0  0  0  0  0  0
   15.7679  -14.2035    0.0000 N   0  0  0  0  0  0  0  0  0  0  0  0
   14.4321  -14.9577    0.0000 C   0  0  0  0  0  0  0  0  0  0  0  0
   15.3456  -16.3173    0.0000 C   0  0  0  0  0  0  0  0  0  0  0  0
   13.3548  -16.2092    0.0000 C   0  0  0  0  0  0  0  0  0  0  0  0
   12.9993  -14.2448    0.0000 C   0  0  0  0  0  0  0  0  0  0  0  0
   18.0765  -10.2973    0.0000 N   0  0  0  0  0  0  0  0  0  0  0  0
   20.6017  -11.3709    0.0000 N   0  0  0  0  0  0  0  0  0  0  0  0
   18.3325   -8.7456    0.0000 C   0  0  0  0  0  0  0  0  0  0  0  0
   18.8825   -7.2076    0.0000 C   0  0  0  0  0  0  0  0  0  0  0  0
   16.8513   -8.1347    0.0000 C   0  0  0  0  0  0  0  0  0  0  0  0
   19.8592   -9.0173    0.0000 C   0  0  0  0  0  0  0  0  0  0  0  0
   21.9091  -10.5667    0.0000 C   0  0  0  0  0  0  0  0  0  0  0  0
   22.6520  -12.0275    0.0000 C   0  0  0  0  0  0  0  0  0  0  0  0
   23.5273  -10.2374    0.0000 C   0  0  0  0  0  0  0  0  0  0  0  0
   21.9880   -8.9678    0.0000 C   0  0  0  0  0  0  0  0  0  0  0  0
   14.5907  -10.9421    0.0000 C   0  0  0  0  0  0  0  0  0  0  0  0
   12.9820  -10.6603    0.0000 C   0  0  0  0  0  0  0  0  0  0  0  0
   14.7893   -9.3520    0.0000 C   0  0  0  0  0  0  0  0  0  0  0  0
   14.0712  -12.4067    0.0000 C   0  0  0  0  0  0  0  0  0  0  0  0
  1  2  1  0  0  0  0
  2  3  1  0  0  0  0
  2  4  1  0  0  0  0
  2  5  1  0  0  0  0
  1  6  1  0  0  0  0
  1  7  1  0  0  0  0
  7  8  1  0  0  0  0
  7  9  1  0  0  0  0
  9 10  1  0  0  0  0
 10 11  1  0  0  0  0
 10 12  1  0  0  0  0
 10 13  1  0  0  0  0
  6 14  1  0  0  0  0
  6 15  1  0  0  0  0
 14 16  1  0  0  0  0
 16 17  1  0  0  0  0
 16 18  1  0  0  0  0
 16 19  1  0  0  0  0
 15 20  1  0  0  0  0
 20 21  1  0  0  0  0
 20 22  1  0  0  0  0
 20 23  1  0  0  0  0
  8 24  1  0  0  0  0
 24 25  1  0  0  0  0
 24 26  1  0  0  0  0
 24 27  1  0  0  0  0
M  END
$$$$
