
  ACD/LABS05232616292D

 23 22  0  0  0  0  0  0  0  0  1 V2000
   18.5339  -12.9417    0.0000 N   0  0  0  0  0  0  0  0  0  0  0  0
   19.3392  -14.3364    0.0000 C   0  0  0  0  0  0  0  0  0  0  0  0
   20.2002  -15.7181    0.0000 C   0  0  0  0  0  0  0  0  0  0  0  0
   20.8434  -13.7840    0.0000 C   0  0  0  0  0  0  0  0  0  0  0  0
   18.1792  -15.4416    0.0000 C   0  0  0  0  0  0  0  0  0  0  0  0
   19.3145  -11.4847    0.0000 B   0  0  0  0  0  0  0  0  0  0  0  0
   16.9306  -12.9354    0.0000 B   0  0  0  0  0  0  0  0  0  0  0  0
   16.1224  -14.3106    0.0000 Cl  0  0  0  0  0  0  0  0  0  0  0  0
   16.0678  -11.6300    0.0000 N   0  0  0  0  0  0  0  0  0  0  0  0
   14.4920  -11.5110    0.0000 C   0  0  0  0  0  0  0  0  0  0  0  0
   12.9091  -11.1612    0.0000 C   0  0  0  0  0  0  0  0  0  0  0  0
   14.6552   -9.9029    0.0000 C   0  0  0  0  0  0  0  0  0  0  0  0
   14.0171  -13.0340    0.0000 C   0  0  0  0  0  0  0  0  0  0  0  0
   18.2527  -10.3078    0.0000 N   0  0  0  0  0  0  0  0  0  0  0  0
   20.8197  -11.3196    0.0000 N   0  0  0  0  0  0  0  0  0  0  0  0
   18.4929   -8.7521    0.0000 C   0  0  0  0  0  0  0  0  0  0  0  0
   18.9582   -7.1964    0.0000 C   0  0  0  0  0  0  0  0  0  0  0  0
   16.9467   -8.2863    0.0000 C   0  0  0  0  0  0  0  0  0  0  0  0
   20.0224   -8.9734    0.0000 C   0  0  0  0  0  0  0  0  0  0  0  0
   22.1278  -10.5269    0.0000 C   0  0  0  0  0  0  0  0  0  0  0  0
   22.8713  -11.9816    0.0000 C   0  0  0  0  0  0  0  0  0  0  0  0
   23.7380  -10.1839    0.0000 C   0  0  0  0  0  0  0  0  0  0  0  0
   22.1741   -8.9311    0.0000 C   0  0  0  0  0  0  0  0  0  0  0  0
  1  2  1  0  0  0  0
  2  3  1  0  0  0  0
  2  4  1  0  0  0  0
  2  5  1  0  0  0  0
  1  6  1  0  0  0  0
  1  7  1  0  0  0  0
  7  8  1  0  0  0  0
  7  9  1  0  0  0  0
  9 10  1  0  0  0  0
 10 11  1  0  0  0  0
 10 12  1  0  0  0  0
 10 13  1  0  0  0  0
  6 14  1  0  0  0  0
  6 15  1  0  0  0  0
 14 16  1  0  0  0  0
 16 17  1  0  0  0  0
 16 18  1  0  0  0  0
 16 19  1  0  0  0  0
 15 20  1  0  0  0  0
 20 21  1  0  0  0  0
 20 22  1  0  0  0  0
 20 23  1  0  0  0  0
M  END
$$$$
