
  ACD/LABS06052619092D

 12 13  0  0  1  0  0  0  0  0  1 V2000
   18.3155   -7.0506    0.0000 C   0  0  0  0  0  0  0  0  0  0  0  0
   16.7131   -7.2749    0.0000 C   0  0  0  0  0  0  0  0  0  0  0  0
   18.1874   -8.3486    0.0000 C   0  0  0  0  0  0  0  0  0  0  0  0
   17.8348   -6.0411    0.0000 C   0  0  0  0  0  0  0  0  0  0  0  0
   19.5013   -8.2364    0.0000 C   0  0  0  0  0  0  0  0  0  0  0  0
   20.6070   -7.4352    0.0000 C   0  0  0  0  0  0  0  0  0  0  0  0
   20.2224   -9.1978    0.0000 C   0  0  0  0  0  0  0  0  0  0  0  0
   18.7642   -9.5183    0.0000 H   0  0  0  0  0  0  0  0  0  0  0  0
   19.0527   -6.1372    0.0000 H   0  0  0  0  0  0  0  0  0  0  0  0
   16.1523   -8.3646    0.0000 C   0  0  0  0  0  0  0  0  0  0  0  0
   16.9535   -8.9735    0.0000 C   0  0  0  0  0  0  0  0  0  0  0  0
   15.3351   -8.4287    0.0000 C   0  0  0  0  0  0  0  0  0  0  0  0
  1  2  1  0  0  0  0
  1  4  1  0  0  0  0
  3  5  1  0  0  0  0
  1  5  1  0  0  0  0
  4  3  1  0  0  0  0
  5  6  1  0  0  0  0
  5  7  1  0  0  0  0
  3  8  1  1  0  0  0
  1  9  1  6  0  0  0
  2 10  2  0  0  0  0
 10 11  1  0  0  0  0
 11  3  1  0  0  0  0
 10 12  1  0  0  0  0
M  END
$$$$
